
---------- Begin Simulation Statistics ----------
final_tick                                   10944163                       # Number of ticks from beginning of simulation (restored from checkpoints and never reset)
host_mem_usage                                  91416                       # Number of bytes of host memory used
host_seconds                                     0.00                       # Real time elapsed on the host
host_tick_rate                            37702740505                       # Simulator tick rate (ticks/s)
sim_freq                                 1000000000000                       # Frequency of simulated ticks
sim_seconds                                  0.000011                       # Number of seconds simulated
sim_ticks                                    10944163                       # Number of ticks simulated

---------- End Simulation Statistics   ----------
