
---------- Begin Simulation Statistics ----------
final_tick                                11043903750                       # Number of ticks from beginning of simulation (restored from checkpoints and never reset)
host_inst_rate                                 299388                       # Simulator instruction rate (inst/s)
host_mem_usage                                 658088                       # Number of bytes of host memory used
host_op_rate                                   301385                       # Simulator op (including micro ops) rate (op/s)
host_seconds                                   111.68                       # Real time elapsed on the host
host_tick_rate                               98888532                       # Simulator tick rate (ticks/s)
sim_freq                                 1000000000000                       # Frequency of simulated ticks
sim_insts                                    33435691                       # Number of instructions simulated
sim_ops                                      33658812                       # Number of ops (including micro ops) simulated
sim_seconds                                  0.011044                       # Number of seconds simulated
sim_ticks                                 11043903750                       # Number of ticks simulated
system.cpu.cc_regfile_reads                 128468712                       # number of cc regfile reads
system.cpu.cc_regfile_writes                  3327529                       # number of cc regfile writes
system.cpu.committedInsts                    33435691                       # Number of Instructions Simulated
system.cpu.committedOps                      33658812                       # Number of Ops (including micro ops) Simulated
system.cpu.cpi                               0.528485                       # CPI: Cycles Per Instruction
system.cpu.cpi_total                         0.528485                       # CPI: Total CPI of All Threads
system.cpu.idleCycles                           40805                       # Total number of cycles that the CPU has spent unscheduled due to idling
system.cpu.iew.branchMispredicts                66655                       # Number of branch mispredicts detected at execute
system.cpu.iew.branch_mispredict_rate        2.073430                       # Percentage of branch mispredicts
system.cpu.iew.branch_percentage             9.363652                       # Percentage of branches executed
system.cpu.iew.exec_branches                  3214722                       # Number of branches executed
system.cpu.iew.exec_nop                             2                       # number of nop insts executed
system.cpu.iew.exec_rate                     1.942923                       # Inst execution rate
system.cpu.iew.exec_refs                     12380455                       # number of memory reference insts executed
system.cpu.iew.exec_stores                    3870587                       # Number of stores executed
system.cpu.iew.exec_swp                             0                       # number of swp insts executed
system.cpu.iew.iewBlockCycles                   85173                       # Number of cycles IEW is blocking
system.cpu.iew.iewDispLoadInsts               8717573                       # Number of dispatched load instructions
system.cpu.iew.iewDispNonSpecInsts                 68                       # Number of dispatched non-speculative instructions
system.cpu.iew.iewDispSquashedInsts                 0                       # Number of squashed instructions skipped by dispatch
system.cpu.iew.iewDispStoreInsts              4033329                       # Number of dispatched store instructions
system.cpu.iew.iewDispatchedInsts            34788995                       # Number of instructions dispatched to IQ
system.cpu.iew.iewExecLoadInsts               8509868                       # Number of load instructions executed
system.cpu.iew.iewExecSquashedInsts            150872                       # Number of squashed instructions skipped in execute
system.cpu.iew.iewExecutedInsts              34331927                       # Number of executed instructions
system.cpu.iew.iewIQFullEvents                      7                       # Number of times the IQ has become full, causing a stall
system.cpu.iew.iewIdleCycles                        0                       # Number of cycles IEW is idle
system.cpu.iew.iewLSQFullEvents                    87                       # Number of times the LSQ has become full, causing a stall
system.cpu.iew.iewSquashCycles                  66634                       # Number of cycles IEW is squashing
system.cpu.iew.iewUnblockCycles                    95                       # Number of cycles IEW is unblocking
system.cpu.iew.memOrderViolationEvents             66                       # Number of memory order violations
system.cpu.iew.predictedNotTakenIncorrect        35626                       # Number of branches that were predicted not taken incorrectly
system.cpu.iew.predictedTakenIncorrect          31029                       # Number of branches that were predicted taken incorrectly
system.cpu.iew.wb_consumers                  26513842                       # num instructions consuming a value
system.cpu.iew.wb_count                      34312968                       # cumulative count of insts written-back
system.cpu.iew.wb_fanout                     0.937643                       # average fanout of values written-back
system.cpu.iew.wb_producers                  24860513                       # num instructions producing a value
system.cpu.iew.wb_rate                       1.941850                       # insts written-back per cycle
system.cpu.iew.wb_sent                       34313156                       # cumulative count of insts sent to commit
system.cpu.int_regfile_reads                 33405927                       # number of integer regfile reads
system.cpu.int_regfile_writes                27223779                       # number of integer regfile writes
system.cpu.ipc                               1.892203                       # IPC: Instructions Per Cycle
system.cpu.ipc_total                         1.892203                       # IPC: Total IPC of All Threads
system.cpu.iq.FU_type_0::No_OpClass                 6      0.00%      0.00% # Type of FU issued
system.cpu.iq.FU_type_0::IntAlu              21988598     63.77%     63.77% # Type of FU issued
system.cpu.iq.FU_type_0::IntMult                  177      0.00%     63.77% # Type of FU issued
system.cpu.iq.FU_type_0::IntDiv                     0      0.00%     63.77% # Type of FU issued
system.cpu.iq.FU_type_0::FloatAdd                   0      0.00%     63.77% # Type of FU issued
system.cpu.iq.FU_type_0::FloatCmp                   0      0.00%     63.77% # Type of FU issued
system.cpu.iq.FU_type_0::FloatCvt                   0      0.00%     63.77% # Type of FU issued
system.cpu.iq.FU_type_0::FloatMult                  0      0.00%     63.77% # Type of FU issued
system.cpu.iq.FU_type_0::FloatMultAcc               0      0.00%     63.77% # Type of FU issued
system.cpu.iq.FU_type_0::FloatDiv                   0      0.00%     63.77% # Type of FU issued
system.cpu.iq.FU_type_0::FloatMisc                  0      0.00%     63.77% # Type of FU issued
system.cpu.iq.FU_type_0::FloatSqrt                  0      0.00%     63.77% # Type of FU issued
system.cpu.iq.FU_type_0::SimdAdd                    0      0.00%     63.77% # Type of FU issued
system.cpu.iq.FU_type_0::SimdAddAcc                 0      0.00%     63.77% # Type of FU issued
system.cpu.iq.FU_type_0::SimdAlu                    0      0.00%     63.77% # Type of FU issued
system.cpu.iq.FU_type_0::SimdCmp                    0      0.00%     63.77% # Type of FU issued
system.cpu.iq.FU_type_0::SimdCvt                    0      0.00%     63.77% # Type of FU issued
system.cpu.iq.FU_type_0::SimdMisc                   0      0.00%     63.77% # Type of FU issued
system.cpu.iq.FU_type_0::SimdMult                   0      0.00%     63.77% # Type of FU issued
system.cpu.iq.FU_type_0::SimdMultAcc                0      0.00%     63.77% # Type of FU issued
system.cpu.iq.FU_type_0::SimdShift                  0      0.00%     63.77% # Type of FU issued
system.cpu.iq.FU_type_0::SimdShiftAcc               0      0.00%     63.77% # Type of FU issued
system.cpu.iq.FU_type_0::SimdDiv                    0      0.00%     63.77% # Type of FU issued
system.cpu.iq.FU_type_0::SimdSqrt                   0      0.00%     63.77% # Type of FU issued
system.cpu.iq.FU_type_0::SimdFloatAdd               0      0.00%     63.77% # Type of FU issued
system.cpu.iq.FU_type_0::SimdFloatAlu               0      0.00%     63.77% # Type of FU issued
system.cpu.iq.FU_type_0::SimdFloatCmp               0      0.00%     63.77% # Type of FU issued
system.cpu.iq.FU_type_0::SimdFloatCvt               0      0.00%     63.77% # Type of FU issued
system.cpu.iq.FU_type_0::SimdFloatDiv               0      0.00%     63.77% # Type of FU issued
system.cpu.iq.FU_type_0::SimdFloatMisc              4      0.00%     63.77% # Type of FU issued
system.cpu.iq.FU_type_0::SimdFloatMult              0      0.00%     63.77% # Type of FU issued
system.cpu.iq.FU_type_0::SimdFloatMultAcc            0      0.00%     63.77% # Type of FU issued
system.cpu.iq.FU_type_0::SimdFloatSqrt              0      0.00%     63.77% # Type of FU issued
system.cpu.iq.FU_type_0::SimdReduceAdd              0      0.00%     63.77% # Type of FU issued
system.cpu.iq.FU_type_0::SimdReduceAlu              0      0.00%     63.77% # Type of FU issued
system.cpu.iq.FU_type_0::SimdReduceCmp              0      0.00%     63.77% # Type of FU issued
system.cpu.iq.FU_type_0::SimdFloatReduceAdd            0      0.00%     63.77% # Type of FU issued
system.cpu.iq.FU_type_0::SimdFloatReduceCmp            0      0.00%     63.77% # Type of FU issued
system.cpu.iq.FU_type_0::SimdAes                    0      0.00%     63.77% # Type of FU issued
system.cpu.iq.FU_type_0::SimdAesMix                 0      0.00%     63.77% # Type of FU issued
system.cpu.iq.FU_type_0::SimdSha1Hash               0      0.00%     63.77% # Type of FU issued
system.cpu.iq.FU_type_0::SimdSha1Hash2              0      0.00%     63.77% # Type of FU issued
system.cpu.iq.FU_type_0::SimdSha256Hash             0      0.00%     63.77% # Type of FU issued
system.cpu.iq.FU_type_0::SimdSha256Hash2            0      0.00%     63.77% # Type of FU issued
system.cpu.iq.FU_type_0::SimdShaSigma2              0      0.00%     63.77% # Type of FU issued
system.cpu.iq.FU_type_0::SimdShaSigma3              0      0.00%     63.77% # Type of FU issued
system.cpu.iq.FU_type_0::SimdPredAlu                0      0.00%     63.77% # Type of FU issued
system.cpu.iq.FU_type_0::MemRead              8588088     24.91%     88.67% # Type of FU issued
system.cpu.iq.FU_type_0::MemWrite             3905926     11.33%    100.00% # Type of FU issued
system.cpu.iq.FU_type_0::FloatMemRead               0      0.00%    100.00% # Type of FU issued
system.cpu.iq.FU_type_0::FloatMemWrite              0      0.00%    100.00% # Type of FU issued
system.cpu.iq.FU_type_0::IprAccess                  0      0.00%    100.00% # Type of FU issued
system.cpu.iq.FU_type_0::InstPrefetch               0      0.00%    100.00% # Type of FU issued
system.cpu.iq.FU_type_0::total               34482799                       # Type of FU issued
system.cpu.iq.fp_alu_accesses                       0                       # Number of floating point alu accesses
system.cpu.iq.fp_inst_queue_reads                   0                       # Number of floating instruction queue reads
system.cpu.iq.fp_inst_queue_wakeup_accesses            0                       # Number of floating instruction queue wakeup accesses
system.cpu.iq.fp_inst_queue_writes                  0                       # Number of floating instruction queue writes
system.cpu.iq.fu_busy_cnt                     2701152                       # FU busy when requested
system.cpu.iq.fu_busy_rate                   0.078333                       # FU busy rate (busy events/executed inst)
system.cpu.iq.fu_full::No_OpClass                   0      0.00%      0.00% # attempts to use FU when none available
system.cpu.iq.fu_full::IntAlu                  610960     22.62%     22.62% # attempts to use FU when none available
system.cpu.iq.fu_full::IntMult                     78      0.00%     22.62% # attempts to use FU when none available
system.cpu.iq.fu_full::IntDiv                       0      0.00%     22.62% # attempts to use FU when none available
system.cpu.iq.fu_full::FloatAdd                     0      0.00%     22.62% # attempts to use FU when none available
system.cpu.iq.fu_full::FloatCmp                     0      0.00%     22.62% # attempts to use FU when none available
system.cpu.iq.fu_full::FloatCvt                     0      0.00%     22.62% # attempts to use FU when none available
system.cpu.iq.fu_full::FloatMult                    0      0.00%     22.62% # attempts to use FU when none available
system.cpu.iq.fu_full::FloatMultAcc                 0      0.00%     22.62% # attempts to use FU when none available
system.cpu.iq.fu_full::FloatDiv                     0      0.00%     22.62% # attempts to use FU when none available
system.cpu.iq.fu_full::FloatMisc                    0      0.00%     22.62% # attempts to use FU when none available
system.cpu.iq.fu_full::FloatSqrt                    0      0.00%     22.62% # attempts to use FU when none available
system.cpu.iq.fu_full::SimdAdd                      0      0.00%     22.62% # attempts to use FU when none available
system.cpu.iq.fu_full::SimdAddAcc                   0      0.00%     22.62% # attempts to use FU when none available
system.cpu.iq.fu_full::SimdAlu                      0      0.00%     22.62% # attempts to use FU when none available
system.cpu.iq.fu_full::SimdCmp                      0      0.00%     22.62% # attempts to use FU when none available
system.cpu.iq.fu_full::SimdCvt                      0      0.00%     22.62% # attempts to use FU when none available
system.cpu.iq.fu_full::SimdMisc                     0      0.00%     22.62% # attempts to use FU when none available
system.cpu.iq.fu_full::SimdMult                     0      0.00%     22.62% # attempts to use FU when none available
system.cpu.iq.fu_full::SimdMultAcc                  0      0.00%     22.62% # attempts to use FU when none available
system.cpu.iq.fu_full::SimdShift                    0      0.00%     22.62% # attempts to use FU when none available
system.cpu.iq.fu_full::SimdShiftAcc                 0      0.00%     22.62% # attempts to use FU when none available
system.cpu.iq.fu_full::SimdDiv                      0      0.00%     22.62% # attempts to use FU when none available
system.cpu.iq.fu_full::SimdSqrt                     0      0.00%     22.62% # attempts to use FU when none available
system.cpu.iq.fu_full::SimdFloatAdd                 0      0.00%     22.62% # attempts to use FU when none available
system.cpu.iq.fu_full::SimdFloatAlu                 0      0.00%     22.62% # attempts to use FU when none available
system.cpu.iq.fu_full::SimdFloatCmp                 0      0.00%     22.62% # attempts to use FU when none available
system.cpu.iq.fu_full::SimdFloatCvt                 0      0.00%     22.62% # attempts to use FU when none available
system.cpu.iq.fu_full::SimdFloatDiv                 0      0.00%     22.62% # attempts to use FU when none available
system.cpu.iq.fu_full::SimdFloatMisc                0      0.00%     22.62% # attempts to use FU when none available
system.cpu.iq.fu_full::SimdFloatMult                0      0.00%     22.62% # attempts to use FU when none available
system.cpu.iq.fu_full::SimdFloatMultAcc             0      0.00%     22.62% # attempts to use FU when none available
system.cpu.iq.fu_full::SimdFloatSqrt                0      0.00%     22.62% # attempts to use FU when none available
system.cpu.iq.fu_full::SimdReduceAdd                0      0.00%     22.62% # attempts to use FU when none available
system.cpu.iq.fu_full::SimdReduceAlu                0      0.00%     22.62% # attempts to use FU when none available
system.cpu.iq.fu_full::SimdReduceCmp                0      0.00%     22.62% # attempts to use FU when none available
system.cpu.iq.fu_full::SimdFloatReduceAdd            0      0.00%     22.62% # attempts to use FU when none available
system.cpu.iq.fu_full::SimdFloatReduceCmp            0      0.00%     22.62% # attempts to use FU when none available
system.cpu.iq.fu_full::SimdAes                      0      0.00%     22.62% # attempts to use FU when none available
system.cpu.iq.fu_full::SimdAesMix                   0      0.00%     22.62% # attempts to use FU when none available
system.cpu.iq.fu_full::SimdSha1Hash                 0      0.00%     22.62% # attempts to use FU when none available
system.cpu.iq.fu_full::SimdSha1Hash2                0      0.00%     22.62% # attempts to use FU when none available
system.cpu.iq.fu_full::SimdSha256Hash               0      0.00%     22.62% # attempts to use FU when none available
system.cpu.iq.fu_full::SimdSha256Hash2              0      0.00%     22.62% # attempts to use FU when none available
system.cpu.iq.fu_full::SimdShaSigma2                0      0.00%     22.62% # attempts to use FU when none available
system.cpu.iq.fu_full::SimdShaSigma3                0      0.00%     22.62% # attempts to use FU when none available
system.cpu.iq.fu_full::SimdPredAlu                  0      0.00%     22.62% # attempts to use FU when none available
system.cpu.iq.fu_full::MemRead                1761889     65.23%     87.85% # attempts to use FU when none available
system.cpu.iq.fu_full::MemWrite                328225     12.15%    100.00% # attempts to use FU when none available
system.cpu.iq.fu_full::FloatMemRead                 0      0.00%    100.00% # attempts to use FU when none available
system.cpu.iq.fu_full::FloatMemWrite                0      0.00%    100.00% # attempts to use FU when none available
system.cpu.iq.fu_full::IprAccess                    0      0.00%    100.00% # attempts to use FU when none available
system.cpu.iq.fu_full::InstPrefetch                 0      0.00%    100.00% # attempts to use FU when none available
system.cpu.iq.int_alu_accesses               37183945                       # Number of integer alu accesses
system.cpu.iq.int_inst_queue_reads           89328348                       # Number of integer instruction queue reads
system.cpu.iq.int_inst_queue_wakeup_accesses     34312968                       # Number of integer instruction queue wakeup accesses
system.cpu.iq.int_inst_queue_writes          35919238                       # Number of integer instruction queue writes
system.cpu.iq.iqInstsAdded                   34788873                       # Number of instructions added to the IQ (excludes non-spec)
system.cpu.iq.iqInstsIssued                  34482799                       # Number of instructions issued
system.cpu.iq.iqNonSpecInstsAdded                 120                       # Number of non-speculative instructions added to the IQ
system.cpu.iq.iqSquashedInstsExamined         1130180                       # Number of squashed instructions iterated over during squash; mainly for profiling
system.cpu.iq.iqSquashedInstsIssued             32156                       # Number of squashed instructions issued
system.cpu.iq.iqSquashedNonSpecRemoved              3                       # Number of squashed non-spec instructions that were removed
system.cpu.iq.iqSquashedOperandsExamined      2405907                       # Number of squashed operands that are examined and possibly removed from graph
system.cpu.iq.issued_per_cycle::samples      17629442                       # Number of insts issued each cycle
system.cpu.iq.issued_per_cycle::mean         1.955978                       # Number of insts issued each cycle
system.cpu.iq.issued_per_cycle::stdev        0.816476                       # Number of insts issued each cycle
system.cpu.iq.issued_per_cycle::underflows            0      0.00%      0.00% # Number of insts issued each cycle
system.cpu.iq.issued_per_cycle::0              748023      4.24%      4.24% # Number of insts issued each cycle
system.cpu.iq.issued_per_cycle::1             4001479     22.70%     26.94% # Number of insts issued each cycle
system.cpu.iq.issued_per_cycle::2             8194265     46.48%     73.42% # Number of insts issued each cycle
system.cpu.iq.issued_per_cycle::3             4649910     26.38%     99.80% # Number of insts issued each cycle
system.cpu.iq.issued_per_cycle::4               35765      0.20%    100.00% # Number of insts issued each cycle
system.cpu.iq.issued_per_cycle::5                   0      0.00%    100.00% # Number of insts issued each cycle
system.cpu.iq.issued_per_cycle::6                   0      0.00%    100.00% # Number of insts issued each cycle
system.cpu.iq.issued_per_cycle::7                   0      0.00%    100.00% # Number of insts issued each cycle
system.cpu.iq.issued_per_cycle::8                   0      0.00%    100.00% # Number of insts issued each cycle
system.cpu.iq.issued_per_cycle::overflows            0      0.00%    100.00% # Number of insts issued each cycle
system.cpu.iq.issued_per_cycle::min_value            0                       # Number of insts issued each cycle
system.cpu.iq.issued_per_cycle::max_value            4                       # Number of insts issued each cycle
system.cpu.iq.issued_per_cycle::total        17629442                       # Number of insts issued each cycle
system.cpu.iq.rate                           1.951461                       # Inst issue rate
system.cpu.iq.vec_alu_accesses                      0                       # Number of vector alu accesses
system.cpu.iq.vec_inst_queue_reads                  0                       # Number of vector instruction queue reads
system.cpu.iq.vec_inst_queue_wakeup_accesses            0                       # Number of vector instruction queue wakeup accesses
system.cpu.iq.vec_inst_queue_writes                 0                       # Number of vector instruction queue writes
system.cpu.memDep0.conflictingLoads            334726                       # Number of conflicting loads.
system.cpu.memDep0.conflictingStores              208                       # Number of conflicting stores.
system.cpu.memDep0.insertedLoads              8717573                       # Number of loads inserted to the mem dependence unit.
system.cpu.memDep0.insertedStores             4033329                       # Number of stores inserted to the mem dependence unit.
system.cpu.misc_regfile_reads               106589645                       # number of misc regfile reads
system.cpu.misc_regfile_writes                    206                       # number of misc regfile writes
system.cpu.numCycles                         17670247                       # number of cpu cycles simulated
system.cpu.numWorkItemsCompleted                    0                       # number of work items this cpu completed
system.cpu.numWorkItemsStarted                      0                       # number of work items this cpu started
system.cpu.timesIdled                             616                       # Number of times that the entire CPU went into an idle state and unscheduled itself
system.cpu.vec_regfile_reads                       32                       # number of vector regfile reads
system.cpu.workload.numSyscalls                    13                       # Number of system calls
system.membus.snoop_filter.hit_multi_requests           38                       # Number of requests hitting in the snoop filter with multiple (>1) holders of the requested data.
system.membus.snoop_filter.hit_multi_snoops            0                       # Number of snoops hitting in the snoop filter with multiple (>1) holders of the requested data.
system.membus.snoop_filter.hit_single_requests         1198                       # Number of requests hitting in the snoop filter with a single holder of the requested data.
system.membus.snoop_filter.hit_single_snoops            0                       # Number of snoops hitting in the snoop filter with a single holder of the requested data.
system.membus.snoop_filter.tot_requests          3368                       # Total number of requests made to the snoop filter.
system.membus.snoop_filter.tot_snoops               0                       # Total number of snoops made to the snoop filter.
system.clk_domain.clock                          1000                       # Clock period in ticks
system.cpu.branchPred.lookups                 3296877                       # Number of BP lookups
system.cpu.branchPred.condPredicted           1015917                       # Number of conditional branches predicted
system.cpu.branchPred.condIncorrect             66985                       # Number of conditional branches incorrect
system.cpu.branchPred.BTBLookups              2016649                       # Number of BTB lookups
system.cpu.branchPred.BTBHits                 2015697                       # Number of BTB hits
system.cpu.branchPred.BTBHitPct             99.952793                       # BTB Hit Percentage
system.cpu.branchPred.RASUsed                 1139496                       # Number of times the RAS was used to get a target.
system.cpu.branchPred.RASIncorrect                161                       # Number of incorrect RAS predictions.
system.cpu.branchPred.indirectLookups          100734                       # Number of indirect predictor lookups.
system.cpu.branchPred.indirectHits             100111                       # Number of indirect target hits.
system.cpu.branchPred.indirectMisses              623                       # Number of indirect misses.
system.cpu.branchPred.indirectMispredicted        27177                       # Number of mispredicted indirect branches.
system.cpu.commit.commitSquashedInsts          961127                       # The number of squashed insts skipped by commit
system.cpu.commit.commitNonSpecStalls             117                       # The number of times commit has been forced to stall to communicate backwards
system.cpu.commit.branchMispredicts             66538                       # The number of times a branch was mispredicted
system.cpu.commit.numCommittedDist::samples     17478737                       # Number of insts commited each cycle
system.cpu.commit.numCommittedDist::mean     1.925700                       # Number of insts commited each cycle
system.cpu.commit.numCommittedDist::stdev     2.377884                       # Number of insts commited each cycle
system.cpu.commit.numCommittedDist::underflows            0      0.00%      0.00% # Number of insts commited each cycle
system.cpu.commit.numCommittedDist::0         6586181     37.68%     37.68% # Number of insts commited each cycle
system.cpu.commit.numCommittedDist::1         4351296     24.89%     62.58% # Number of insts commited each cycle
system.cpu.commit.numCommittedDist::2         1292631      7.40%     69.97% # Number of insts commited each cycle
system.cpu.commit.numCommittedDist::3         1322602      7.57%     77.54% # Number of insts commited each cycle
system.cpu.commit.numCommittedDist::4         1122790      6.42%     83.96% # Number of insts commited each cycle
system.cpu.commit.numCommittedDist::5         1080252      6.18%     90.14% # Number of insts commited each cycle
system.cpu.commit.numCommittedDist::6          403959      2.31%     92.45% # Number of insts commited each cycle
system.cpu.commit.numCommittedDist::7          113934      0.65%     93.11% # Number of insts commited each cycle
system.cpu.commit.numCommittedDist::8         1205092      6.89%    100.00% # Number of insts commited each cycle
system.cpu.commit.numCommittedDist::overflows            0      0.00%    100.00% # Number of insts commited each cycle
system.cpu.commit.numCommittedDist::min_value            0                       # Number of insts commited each cycle
system.cpu.commit.numCommittedDist::max_value            8                       # Number of insts commited each cycle
system.cpu.commit.numCommittedDist::total     17478737                       # Number of insts commited each cycle
system.cpu.commit.instsCommitted             33435691                       # Number of instructions committed
system.cpu.commit.opsCommitted               33658812                       # Number of ops (including micro ops) committed
system.cpu.commit.memRefs                    12269756                       # Number of memory references committed
system.cpu.commit.loads                       8426843                       # Number of loads committed
system.cpu.commit.amos                              0                       # Number of atomic instructions committed
system.cpu.commit.membars                          52                       # Number of memory barriers committed
system.cpu.commit.branches                    3208608                       # Number of branches committed
system.cpu.commit.vector                            0                       # Number of committed Vector instructions.
system.cpu.commit.floating                          0                       # Number of committed floating point instructions.
system.cpu.commit.integer                    32651800                       # Number of committed integer instructions.
system.cpu.commit.functionCalls               1100703                       # Number of function calls committed.
system.cpu.commit.committedInstType_0::No_OpClass            0      0.00%      0.00% # Class of committed instruction
system.cpu.commit.committedInstType_0::IntAlu     21388897     63.55%     63.55% # Class of committed instruction
system.cpu.commit.committedInstType_0::IntMult          155      0.00%     63.55% # Class of committed instruction
system.cpu.commit.committedInstType_0::IntDiv            0      0.00%     63.55% # Class of committed instruction
system.cpu.commit.committedInstType_0::FloatAdd            0      0.00%     63.55% # Class of committed instruction
system.cpu.commit.committedInstType_0::FloatCmp            0      0.00%     63.55% # Class of committed instruction
system.cpu.commit.committedInstType_0::FloatCvt            0      0.00%     63.55% # Class of committed instruction
system.cpu.commit.committedInstType_0::FloatMult            0      0.00%     63.55% # Class of committed instruction
system.cpu.commit.committedInstType_0::FloatMultAcc            0      0.00%     63.55% # Class of committed instruction
system.cpu.commit.committedInstType_0::FloatDiv            0      0.00%     63.55% # Class of committed instruction
system.cpu.commit.committedInstType_0::FloatMisc            0      0.00%     63.55% # Class of committed instruction
system.cpu.commit.committedInstType_0::FloatSqrt            0      0.00%     63.55% # Class of committed instruction
system.cpu.commit.committedInstType_0::SimdAdd            0      0.00%     63.55% # Class of committed instruction
system.cpu.commit.committedInstType_0::SimdAddAcc            0      0.00%     63.55% # Class of committed instruction
system.cpu.commit.committedInstType_0::SimdAlu            0      0.00%     63.55% # Class of committed instruction
system.cpu.commit.committedInstType_0::SimdCmp            0      0.00%     63.55% # Class of committed instruction
system.cpu.commit.committedInstType_0::SimdCvt            0      0.00%     63.55% # Class of committed instruction
system.cpu.commit.committedInstType_0::SimdMisc            0      0.00%     63.55% # Class of committed instruction
system.cpu.commit.committedInstType_0::SimdMult            0      0.00%     63.55% # Class of committed instruction
system.cpu.commit.committedInstType_0::SimdMultAcc            0      0.00%     63.55% # Class of committed instruction
system.cpu.commit.committedInstType_0::SimdShift            0      0.00%     63.55% # Class of committed instruction
system.cpu.commit.committedInstType_0::SimdShiftAcc            0      0.00%     63.55% # Class of committed instruction
system.cpu.commit.committedInstType_0::SimdDiv            0      0.00%     63.55% # Class of committed instruction
system.cpu.commit.committedInstType_0::SimdSqrt            0      0.00%     63.55% # Class of committed instruction
system.cpu.commit.committedInstType_0::SimdFloatAdd            0      0.00%     63.55% # Class of committed instruction
system.cpu.commit.committedInstType_0::SimdFloatAlu            0      0.00%     63.55% # Class of committed instruction
system.cpu.commit.committedInstType_0::SimdFloatCmp            0      0.00%     63.55% # Class of committed instruction
system.cpu.commit.committedInstType_0::SimdFloatCvt            0      0.00%     63.55% # Class of committed instruction
system.cpu.commit.committedInstType_0::SimdFloatDiv            0      0.00%     63.55% # Class of committed instruction
system.cpu.commit.committedInstType_0::SimdFloatMisc            4      0.00%     63.55% # Class of committed instruction
system.cpu.commit.committedInstType_0::SimdFloatMult            0      0.00%     63.55% # Class of committed instruction
system.cpu.commit.committedInstType_0::SimdFloatMultAcc            0      0.00%     63.55% # Class of committed instruction
system.cpu.commit.committedInstType_0::SimdFloatSqrt            0      0.00%     63.55% # Class of committed instruction
system.cpu.commit.committedInstType_0::SimdReduceAdd            0      0.00%     63.55% # Class of committed instruction
system.cpu.commit.committedInstType_0::SimdReduceAlu            0      0.00%     63.55% # Class of committed instruction
system.cpu.commit.committedInstType_0::SimdReduceCmp            0      0.00%     63.55% # Class of committed instruction
system.cpu.commit.committedInstType_0::SimdFloatReduceAdd            0      0.00%     63.55% # Class of committed instruction
system.cpu.commit.committedInstType_0::SimdFloatReduceCmp            0      0.00%     63.55% # Class of committed instruction
system.cpu.commit.committedInstType_0::SimdAes            0      0.00%     63.55% # Class of committed instruction
system.cpu.commit.committedInstType_0::SimdAesMix            0      0.00%     63.55% # Class of committed instruction
system.cpu.commit.committedInstType_0::SimdSha1Hash            0      0.00%     63.55% # Class of committed instruction
system.cpu.commit.committedInstType_0::SimdSha1Hash2            0      0.00%     63.55% # Class of committed instruction
system.cpu.commit.committedInstType_0::SimdSha256Hash            0      0.00%     63.55% # Class of committed instruction
system.cpu.commit.committedInstType_0::SimdSha256Hash2            0      0.00%     63.55% # Class of committed instruction
system.cpu.commit.committedInstType_0::SimdShaSigma2            0      0.00%     63.55% # Class of committed instruction
system.cpu.commit.committedInstType_0::SimdShaSigma3            0      0.00%     63.55% # Class of committed instruction
system.cpu.commit.committedInstType_0::SimdPredAlu            0      0.00%     63.55% # Class of committed instruction
system.cpu.commit.committedInstType_0::MemRead      8426843     25.04%     88.58% # Class of committed instruction
system.cpu.commit.committedInstType_0::MemWrite      3842913     11.42%    100.00% # Class of committed instruction
system.cpu.commit.committedInstType_0::FloatMemRead            0      0.00%    100.00% # Class of committed instruction
system.cpu.commit.committedInstType_0::FloatMemWrite            0      0.00%    100.00% # Class of committed instruction
system.cpu.commit.committedInstType_0::IprAccess            0      0.00%    100.00% # Class of committed instruction
system.cpu.commit.committedInstType_0::InstPrefetch            0      0.00%    100.00% # Class of committed instruction
system.cpu.commit.committedInstType_0::total     33658812                       # Class of committed instruction
system.cpu.commit.commitEligibleSamples       1205092                       # number cycles where commit BW limit reached
system.cpu.dcache.demand_hits::.cpu.data     11446794                       # number of demand (read+write) hits
system.cpu.dcache.demand_hits::total         11446794                       # number of demand (read+write) hits
system.cpu.dcache.overall_hits::.cpu.data     11446794                       # number of overall hits
system.cpu.dcache.overall_hits::total        11446794                       # number of overall hits
system.cpu.dcache.demand_misses::.cpu.data         2569                       # number of demand (read+write) misses
system.cpu.dcache.demand_misses::total           2569                       # number of demand (read+write) misses
system.cpu.dcache.overall_misses::.cpu.data         2569                       # number of overall misses
system.cpu.dcache.overall_misses::total          2569                       # number of overall misses
system.cpu.dcache.demand_miss_latency::.cpu.data    154067500                       # number of demand (read+write) miss cycles
system.cpu.dcache.demand_miss_latency::total    154067500                       # number of demand (read+write) miss cycles
system.cpu.dcache.overall_miss_latency::.cpu.data    154067500                       # number of overall miss cycles
system.cpu.dcache.overall_miss_latency::total    154067500                       # number of overall miss cycles
system.cpu.dcache.demand_accesses::.cpu.data     11449363                       # number of demand (read+write) accesses
system.cpu.dcache.demand_accesses::total     11449363                       # number of demand (read+write) accesses
system.cpu.dcache.overall_accesses::.cpu.data     11449363                       # number of overall (read+write) accesses
system.cpu.dcache.overall_accesses::total     11449363                       # number of overall (read+write) accesses
system.cpu.dcache.demand_miss_rate::.cpu.data     0.000224                       # miss rate for demand accesses
system.cpu.dcache.demand_miss_rate::total     0.000224                       # miss rate for demand accesses
system.cpu.dcache.overall_miss_rate::.cpu.data     0.000224                       # miss rate for overall accesses
system.cpu.dcache.overall_miss_rate::total     0.000224                       # miss rate for overall accesses
system.cpu.dcache.demand_avg_miss_latency::.cpu.data 59971.778902                       # average overall miss latency
system.cpu.dcache.demand_avg_miss_latency::total 59971.778902                       # average overall miss latency
system.cpu.dcache.overall_avg_miss_latency::.cpu.data 59971.778902                       # average overall miss latency
system.cpu.dcache.overall_avg_miss_latency::total 59971.778902                       # average overall miss latency
system.cpu.dcache.blocked_cycles::no_mshrs            0                       # number of cycles access was blocked
system.cpu.dcache.blocked_cycles::no_targets         2470                       # number of cycles access was blocked
system.cpu.dcache.blocked::no_mshrs                 0                       # number of cycles access was blocked
system.cpu.dcache.blocked::no_targets              34                       # number of cycles access was blocked
system.cpu.dcache.avg_blocked_cycles::no_mshrs          nan                       # average number of cycles each access was blocked
system.cpu.dcache.avg_blocked_cycles::no_targets    72.647059                       # average number of cycles each access was blocked
system.cpu.dcache.writebacks::.writebacks          874                       # number of writebacks
system.cpu.dcache.writebacks::total               874                       # number of writebacks
system.cpu.dcache.demand_mshr_hits::.cpu.data         1183                       # number of demand (read+write) MSHR hits
system.cpu.dcache.demand_mshr_hits::total         1183                       # number of demand (read+write) MSHR hits
system.cpu.dcache.overall_mshr_hits::.cpu.data         1183                       # number of overall MSHR hits
system.cpu.dcache.overall_mshr_hits::total         1183                       # number of overall MSHR hits
system.cpu.dcache.demand_mshr_misses::.cpu.data         1386                       # number of demand (read+write) MSHR misses
system.cpu.dcache.demand_mshr_misses::total         1386                       # number of demand (read+write) MSHR misses
system.cpu.dcache.overall_mshr_misses::.cpu.data         1386                       # number of overall MSHR misses
system.cpu.dcache.overall_mshr_misses::total         1386                       # number of overall MSHR misses
system.cpu.dcache.demand_mshr_miss_latency::.cpu.data     86033875                       # number of demand (read+write) MSHR miss cycles
system.cpu.dcache.demand_mshr_miss_latency::total     86033875                       # number of demand (read+write) MSHR miss cycles
system.cpu.dcache.overall_mshr_miss_latency::.cpu.data     86033875                       # number of overall MSHR miss cycles
system.cpu.dcache.overall_mshr_miss_latency::total     86033875                       # number of overall MSHR miss cycles
system.cpu.dcache.demand_mshr_miss_rate::.cpu.data     0.000121                       # mshr miss rate for demand accesses
system.cpu.dcache.demand_mshr_miss_rate::total     0.000121                       # mshr miss rate for demand accesses
system.cpu.dcache.overall_mshr_miss_rate::.cpu.data     0.000121                       # mshr miss rate for overall accesses
system.cpu.dcache.overall_mshr_miss_rate::total     0.000121                       # mshr miss rate for overall accesses
system.cpu.dcache.demand_avg_mshr_miss_latency::.cpu.data 62073.502886                       # average overall mshr miss latency
system.cpu.dcache.demand_avg_mshr_miss_latency::total 62073.502886                       # average overall mshr miss latency
system.cpu.dcache.overall_avg_mshr_miss_latency::.cpu.data 62073.502886                       # average overall mshr miss latency
system.cpu.dcache.overall_avg_mshr_miss_latency::total 62073.502886                       # average overall mshr miss latency
system.cpu.dcache.replacements                    874                       # number of replacements
system.cpu.dcache.ReadReq_hits::.cpu.data      7701816                       # number of ReadReq hits
system.cpu.dcache.ReadReq_hits::total         7701816                       # number of ReadReq hits
system.cpu.dcache.ReadReq_misses::.cpu.data          449                       # number of ReadReq misses
system.cpu.dcache.ReadReq_misses::total           449                       # number of ReadReq misses
system.cpu.dcache.ReadReq_miss_latency::.cpu.data     28543125                       # number of ReadReq miss cycles
system.cpu.dcache.ReadReq_miss_latency::total     28543125                       # number of ReadReq miss cycles
system.cpu.dcache.ReadReq_accesses::.cpu.data      7702265                       # number of ReadReq accesses(hits+misses)
system.cpu.dcache.ReadReq_accesses::total      7702265                       # number of ReadReq accesses(hits+misses)
system.cpu.dcache.ReadReq_miss_rate::.cpu.data     0.000058                       # miss rate for ReadReq accesses
system.cpu.dcache.ReadReq_miss_rate::total     0.000058                       # miss rate for ReadReq accesses
system.cpu.dcache.ReadReq_avg_miss_latency::.cpu.data 63570.434298                       # average ReadReq miss latency
system.cpu.dcache.ReadReq_avg_miss_latency::total 63570.434298                       # average ReadReq miss latency
system.cpu.dcache.ReadReq_mshr_hits::.cpu.data          215                       # number of ReadReq MSHR hits
system.cpu.dcache.ReadReq_mshr_hits::total          215                       # number of ReadReq MSHR hits
system.cpu.dcache.ReadReq_mshr_misses::.cpu.data          234                       # number of ReadReq MSHR misses
system.cpu.dcache.ReadReq_mshr_misses::total          234                       # number of ReadReq MSHR misses
system.cpu.dcache.ReadReq_mshr_miss_latency::.cpu.data     15331875                       # number of ReadReq MSHR miss cycles
system.cpu.dcache.ReadReq_mshr_miss_latency::total     15331875                       # number of ReadReq MSHR miss cycles
system.cpu.dcache.ReadReq_mshr_miss_rate::.cpu.data     0.000030                       # mshr miss rate for ReadReq accesses
system.cpu.dcache.ReadReq_mshr_miss_rate::total     0.000030                       # mshr miss rate for ReadReq accesses
system.cpu.dcache.ReadReq_avg_mshr_miss_latency::.cpu.data 65520.833333                       # average ReadReq mshr miss latency
system.cpu.dcache.ReadReq_avg_mshr_miss_latency::total 65520.833333                       # average ReadReq mshr miss latency
system.cpu.dcache.WriteReq_hits::.cpu.data      3744978                       # number of WriteReq hits
system.cpu.dcache.WriteReq_hits::total        3744978                       # number of WriteReq hits
system.cpu.dcache.WriteReq_misses::.cpu.data         2120                       # number of WriteReq misses
system.cpu.dcache.WriteReq_misses::total         2120                       # number of WriteReq misses
system.cpu.dcache.WriteReq_miss_latency::.cpu.data    125524375                       # number of WriteReq miss cycles
system.cpu.dcache.WriteReq_miss_latency::total    125524375                       # number of WriteReq miss cycles
system.cpu.dcache.WriteReq_accesses::.cpu.data      3747098                       # number of WriteReq accesses(hits+misses)
system.cpu.dcache.WriteReq_accesses::total      3747098                       # number of WriteReq accesses(hits+misses)
system.cpu.dcache.WriteReq_miss_rate::.cpu.data     0.000566                       # miss rate for WriteReq accesses
system.cpu.dcache.WriteReq_miss_rate::total     0.000566                       # miss rate for WriteReq accesses
system.cpu.dcache.WriteReq_avg_miss_latency::.cpu.data 59209.610849                       # average WriteReq miss latency
system.cpu.dcache.WriteReq_avg_miss_latency::total 59209.610849                       # average WriteReq miss latency
system.cpu.dcache.WriteReq_mshr_hits::.cpu.data          968                       # number of WriteReq MSHR hits
system.cpu.dcache.WriteReq_mshr_hits::total          968                       # number of WriteReq MSHR hits
system.cpu.dcache.WriteReq_mshr_misses::.cpu.data         1152                       # number of WriteReq MSHR misses
system.cpu.dcache.WriteReq_mshr_misses::total         1152                       # number of WriteReq MSHR misses
system.cpu.dcache.WriteReq_mshr_miss_latency::.cpu.data     70702000                       # number of WriteReq MSHR miss cycles
system.cpu.dcache.WriteReq_mshr_miss_latency::total     70702000                       # number of WriteReq MSHR miss cycles
system.cpu.dcache.WriteReq_mshr_miss_rate::.cpu.data     0.000307                       # mshr miss rate for WriteReq accesses
system.cpu.dcache.WriteReq_mshr_miss_rate::total     0.000307                       # mshr miss rate for WriteReq accesses
system.cpu.dcache.WriteReq_avg_mshr_miss_latency::.cpu.data 61373.263889                       # average WriteReq mshr miss latency
system.cpu.dcache.WriteReq_avg_mshr_miss_latency::total 61373.263889                       # average WriteReq mshr miss latency
system.cpu.dcache.LoadLockedReq_hits::.cpu.data           49                       # number of LoadLockedReq hits
system.cpu.dcache.LoadLockedReq_hits::total           49                       # number of LoadLockedReq hits
system.cpu.dcache.LoadLockedReq_misses::.cpu.data            2                       # number of LoadLockedReq misses
system.cpu.dcache.LoadLockedReq_misses::total            2                       # number of LoadLockedReq misses
system.cpu.dcache.LoadLockedReq_miss_latency::.cpu.data       100000                       # number of LoadLockedReq miss cycles
system.cpu.dcache.LoadLockedReq_miss_latency::total       100000                       # number of LoadLockedReq miss cycles
system.cpu.dcache.LoadLockedReq_accesses::.cpu.data           51                       # number of LoadLockedReq accesses(hits+misses)
system.cpu.dcache.LoadLockedReq_accesses::total           51                       # number of LoadLockedReq accesses(hits+misses)
system.cpu.dcache.LoadLockedReq_miss_rate::.cpu.data     0.039216                       # miss rate for LoadLockedReq accesses
system.cpu.dcache.LoadLockedReq_miss_rate::total     0.039216                       # miss rate for LoadLockedReq accesses
system.cpu.dcache.LoadLockedReq_avg_miss_latency::.cpu.data        50000                       # average LoadLockedReq miss latency
system.cpu.dcache.LoadLockedReq_avg_miss_latency::total        50000                       # average LoadLockedReq miss latency
system.cpu.dcache.LoadLockedReq_mshr_hits::.cpu.data            2                       # number of LoadLockedReq MSHR hits
system.cpu.dcache.LoadLockedReq_mshr_hits::total            2                       # number of LoadLockedReq MSHR hits
system.cpu.dcache.StoreCondReq_hits::.cpu.data           51                       # number of StoreCondReq hits
system.cpu.dcache.StoreCondReq_hits::total           51                       # number of StoreCondReq hits
system.cpu.dcache.StoreCondReq_accesses::.cpu.data           51                       # number of StoreCondReq accesses(hits+misses)
system.cpu.dcache.StoreCondReq_accesses::total           51                       # number of StoreCondReq accesses(hits+misses)
system.cpu.dcache.power_state.pwrStateResidencyTicks::UNDEFINED  11043903750                       # Cumulative time (in ticks) in various power states
system.cpu.dcache.tags.tagsinuse           510.588675                       # Cycle average of tags in use
system.cpu.dcache.tags.total_refs            11448280                       # Total number of references to valid blocks.
system.cpu.dcache.tags.sampled_refs              1386                       # Sample count of references to valid blocks.
system.cpu.dcache.tags.avg_refs           8259.942280                       # Average number of references to valid blocks.
system.cpu.dcache.tags.warmup_cycle            149000                       # Cycle when the warmup percentage was hit.
system.cpu.dcache.tags.occ_blocks::.cpu.data   510.588675                       # Average occupied blocks per requestor
system.cpu.dcache.tags.occ_percent::.cpu.data     0.997244                       # Average percentage of cache occupancy
system.cpu.dcache.tags.occ_percent::total     0.997244                       # Average percentage of cache occupancy
system.cpu.dcache.tags.occ_task_id_blocks::1024          512                       # Occupied blocks per task id
system.cpu.dcache.tags.age_task_id_blocks_1024::0           43                       # Occupied blocks per task id
system.cpu.dcache.tags.age_task_id_blocks_1024::1           49                       # Occupied blocks per task id
system.cpu.dcache.tags.age_task_id_blocks_1024::4          420                       # Occupied blocks per task id
system.cpu.dcache.tags.occ_task_id_percent::1024            1                       # Percentage of cache occupancy per task id
system.cpu.dcache.tags.tag_accesses          45799246                       # Number of tag accesses
system.cpu.dcache.tags.data_accesses         45799246                       # Number of data accesses
system.cpu.dcache.tags.power_state.pwrStateResidencyTicks::UNDEFINED  11043903750                       # Cumulative time (in ticks) in various power states
system.cpu.decode.idleCycles                   152293                       # Number of cycles decode is idle
system.cpu.decode.blockedCycles                145517                       # Number of cycles decode is blocked
system.cpu.decode.runCycles                  17261387                       # Number of cycles decode is running
system.cpu.decode.unblockCycles                  3611                       # Number of cycles decode is unblocking
system.cpu.decode.squashCycles                  66634                       # Number of cycles decode is squashing
system.cpu.decode.branchResolved              2007265                       # Number of times decode resolved a  branch
system.cpu.decode.branchMispred                   462                       # Number of times decode detected a branch misprediction
system.cpu.decode.decodedInsts               35144058                       # Number of instructions handled by decode
system.cpu.decode.squashedInsts                271750                       # Number of squashed instructions handled by decode
system.cpu.dtb.instHits                             0                       # ITB inst hits
system.cpu.dtb.instMisses                           0                       # ITB inst misses
system.cpu.dtb.readHits                             0                       # DTB read hits
system.cpu.dtb.readMisses                           0                       # DTB read misses
system.cpu.dtb.writeHits                            0                       # DTB write hits
system.cpu.dtb.writeMisses                          0                       # DTB write misses
system.cpu.dtb.inserts                              0                       # Number of times an entry is inserted into the TLB
system.cpu.dtb.flushTlb                             0                       # Number of times complete TLB was flushed
system.cpu.dtb.flushTlbMva                          0                       # Number of times TLB was flushed by MVA
system.cpu.dtb.flushTlbMvaAsid                      0                       # Number of times TLB was flushed by MVA & ASID
system.cpu.dtb.flushTlbAsid                         0                       # Number of times TLB was flushed by ASID
system.cpu.dtb.flushedEntries                       0                       # Number of entries that have been flushed from TLB
system.cpu.dtb.alignFaults                          0                       # Number of TLB faults due to alignment restrictions
system.cpu.dtb.prefetchFaults                       0                       # Number of TLB faults due to prefetch
system.cpu.dtb.domainFaults                         0                       # Number of TLB faults due to domain restrictions
system.cpu.dtb.permsFaults                          0                       # Number of TLB faults due to permissions restrictions
system.cpu.dtb.readAccesses                         0                       # DTB read accesses
system.cpu.dtb.writeAccesses                        0                       # DTB write accesses
system.cpu.dtb.instAccesses                         0                       # ITB inst accesses
system.cpu.dtb.hits                                 0                       # Total TLB (inst and data) hits
system.cpu.dtb.misses                               0                       # Total TLB (inst and data) misses
system.cpu.dtb.accesses                             0                       # Total TLB (inst and data) accesses
system.cpu.dtb.stage2_mmu.stage2_tlb.instHits            0                       # ITB inst hits
system.cpu.dtb.stage2_mmu.stage2_tlb.instMisses            0                       # ITB inst misses
system.cpu.dtb.stage2_mmu.stage2_tlb.readHits            0                       # DTB read hits
system.cpu.dtb.stage2_mmu.stage2_tlb.readMisses            0                       # DTB read misses
system.cpu.dtb.stage2_mmu.stage2_tlb.writeHits            0                       # DTB write hits
system.cpu.dtb.stage2_mmu.stage2_tlb.writeMisses            0                       # DTB write misses
system.cpu.dtb.stage2_mmu.stage2_tlb.inserts            0                       # Number of times an entry is inserted into the TLB
system.cpu.dtb.stage2_mmu.stage2_tlb.flushTlb            0                       # Number of times complete TLB was flushed
system.cpu.dtb.stage2_mmu.stage2_tlb.flushTlbMva            0                       # Number of times TLB was flushed by MVA
system.cpu.dtb.stage2_mmu.stage2_tlb.flushTlbMvaAsid            0                       # Number of times TLB was flushed by MVA & ASID
system.cpu.dtb.stage2_mmu.stage2_tlb.flushTlbAsid            0                       # Number of times TLB was flushed by ASID
system.cpu.dtb.stage2_mmu.stage2_tlb.flushedEntries            0                       # Number of entries that have been flushed from TLB
system.cpu.dtb.stage2_mmu.stage2_tlb.alignFaults            0                       # Number of TLB faults due to alignment restrictions
system.cpu.dtb.stage2_mmu.stage2_tlb.prefetchFaults            0                       # Number of TLB faults due to prefetch
system.cpu.dtb.stage2_mmu.stage2_tlb.domainFaults            0                       # Number of TLB faults due to domain restrictions
system.cpu.dtb.stage2_mmu.stage2_tlb.permsFaults            0                       # Number of TLB faults due to permissions restrictions
system.cpu.dtb.stage2_mmu.stage2_tlb.readAccesses            0                       # DTB read accesses
system.cpu.dtb.stage2_mmu.stage2_tlb.writeAccesses            0                       # DTB write accesses
system.cpu.dtb.stage2_mmu.stage2_tlb.instAccesses            0                       # ITB inst accesses
system.cpu.dtb.stage2_mmu.stage2_tlb.hits            0                       # Total TLB (inst and data) hits
system.cpu.dtb.stage2_mmu.stage2_tlb.misses            0                       # Total TLB (inst and data) misses
system.cpu.dtb.stage2_mmu.stage2_tlb.accesses            0                       # Total TLB (inst and data) accesses
system.cpu.dtb.stage2_mmu.stage2_tlb.walker.walks            0                       # Table walker walks requested
system.cpu.dtb.stage2_mmu.stage2_tlb.walker.requestOrigin_Requested::Data            0                       # Table walker requests started/completed, data/inst
system.cpu.dtb.stage2_mmu.stage2_tlb.walker.requestOrigin_Requested::Inst            0                       # Table walker requests started/completed, data/inst
system.cpu.dtb.stage2_mmu.stage2_tlb.walker.requestOrigin_Requested::total            0                       # Table walker requests started/completed, data/inst
system.cpu.dtb.stage2_mmu.stage2_tlb.walker.requestOrigin_Completed::Data            0                       # Table walker requests started/completed, data/inst
system.cpu.dtb.stage2_mmu.stage2_tlb.walker.requestOrigin_Completed::Inst            0                       # Table walker requests started/completed, data/inst
system.cpu.dtb.stage2_mmu.stage2_tlb.walker.requestOrigin_Completed::total            0                       # Table walker requests started/completed, data/inst
system.cpu.dtb.stage2_mmu.stage2_tlb.walker.requestOrigin::total            0                       # Table walker requests started/completed, data/inst
system.cpu.dtb.stage2_mmu.stage2_tlb.walker.power_state.pwrStateResidencyTicks::UNDEFINED  11043903750                       # Cumulative time (in ticks) in various power states
system.cpu.dtb.walker.walks                         0                       # Table walker walks requested
system.cpu.dtb.walker.requestOrigin_Requested::Data            0                       # Table walker requests started/completed, data/inst
system.cpu.dtb.walker.requestOrigin_Requested::Inst            0                       # Table walker requests started/completed, data/inst
system.cpu.dtb.walker.requestOrigin_Requested::total            0                       # Table walker requests started/completed, data/inst
system.cpu.dtb.walker.requestOrigin_Completed::Data            0                       # Table walker requests started/completed, data/inst
system.cpu.dtb.walker.requestOrigin_Completed::Inst            0                       # Table walker requests started/completed, data/inst
system.cpu.dtb.walker.requestOrigin_Completed::total            0                       # Table walker requests started/completed, data/inst
system.cpu.dtb.walker.requestOrigin::total            0                       # Table walker requests started/completed, data/inst
system.cpu.dtb.walker.power_state.pwrStateResidencyTicks::UNDEFINED  11043903750                       # Cumulative time (in ticks) in various power states
system.cpu.dtb_walker_cache.blocked_cycles::no_mshrs            0                       # number of cycles access was blocked
system.cpu.dtb_walker_cache.blocked_cycles::no_targets            0                       # number of cycles access was blocked
system.cpu.dtb_walker_cache.blocked::no_mshrs            0                       # number of cycles access was blocked
system.cpu.dtb_walker_cache.blocked::no_targets            0                       # number of cycles access was blocked
system.cpu.dtb_walker_cache.avg_blocked_cycles::no_mshrs          nan                       # average number of cycles each access was blocked
system.cpu.dtb_walker_cache.avg_blocked_cycles::no_targets          nan                       # average number of cycles each access was blocked
system.cpu.dtb_walker_cache.replacements            0                       # number of replacements
system.cpu.dtb_walker_cache.power_state.pwrStateResidencyTicks::UNDEFINED  11043903750                       # Cumulative time (in ticks) in various power states
system.cpu.dtb_walker_cache.tags.tagsinuse            0                       # Cycle average of tags in use
system.cpu.dtb_walker_cache.tags.total_refs            0                       # Total number of references to valid blocks.
system.cpu.dtb_walker_cache.tags.sampled_refs            0                       # Sample count of references to valid blocks.
system.cpu.dtb_walker_cache.tags.avg_refs          nan                       # Average number of references to valid blocks.
system.cpu.dtb_walker_cache.tags.warmup_cycle            0                       # Cycle when the warmup percentage was hit.
system.cpu.dtb_walker_cache.tags.tag_accesses            0                       # Number of tag accesses
system.cpu.dtb_walker_cache.tags.data_accesses            0                       # Number of data accesses
system.cpu.dtb_walker_cache.tags.power_state.pwrStateResidencyTicks::UNDEFINED  11043903750                       # Cumulative time (in ticks) in various power states
system.cpu.fetch.icacheStallCycles              83413                       # Number of cycles fetch is stalled on an Icache miss
system.cpu.fetch.insts                       35276291                       # Number of instructions fetch has processed
system.cpu.fetch.branches                     3296877                       # Number of branches that fetch encountered
system.cpu.fetch.predictedBranches            3255304                       # Number of branches that fetch has predicted taken
system.cpu.fetch.cycles                      17477802                       # Number of cycles fetch has run and was not squashing or blocked
system.cpu.fetch.squashCycles                  134172                       # Number of cycles fetch has spent squashing
system.cpu.fetch.miscStallCycles                  285                       # Number of cycles fetch has spent waiting on interrupts,or bad addresses, or out of MSHRs
system.cpu.fetch.pendingTrapStallCycles           100                       # Number of stall cycles due to pending traps
system.cpu.fetch.icacheWaitRetryStallCycles          756                       # Number of stall cycles due to full MSHR
system.cpu.fetch.cacheLines                  11272231                       # Number of cache lines fetched
system.cpu.fetch.icacheSquashes                   479                       # Number of outstanding Icache misses that were squashed
system.cpu.fetch.nisnDist::samples           17629442                       # Number of instructions fetched each cycle (Total)
system.cpu.fetch.nisnDist::mean              2.015477                       # Number of instructions fetched each cycle (Total)
system.cpu.fetch.nisnDist::stdev             0.959335                       # Number of instructions fetched each cycle (Total)
system.cpu.fetch.nisnDist::underflows               0      0.00%      0.00% # Number of instructions fetched each cycle (Total)
system.cpu.fetch.nisnDist::0                   203123      1.15%      1.15% # Number of instructions fetched each cycle (Total)
system.cpu.fetch.nisnDist::1                  7368706     41.80%     42.95% # Number of instructions fetched each cycle (Total)
system.cpu.fetch.nisnDist::2                  2009805     11.40%     54.35% # Number of instructions fetched each cycle (Total)
system.cpu.fetch.nisnDist::3                  8047808     45.65%    100.00% # Number of instructions fetched each cycle (Total)
system.cpu.fetch.nisnDist::overflows                0      0.00%    100.00% # Number of instructions fetched each cycle (Total)
system.cpu.fetch.nisnDist::min_value                0                       # Number of instructions fetched each cycle (Total)
system.cpu.fetch.nisnDist::max_value                3                       # Number of instructions fetched each cycle (Total)
system.cpu.fetch.nisnDist::total             17629442                       # Number of instructions fetched each cycle (Total)
system.cpu.fetch.branchRate                  0.186578                       # Number of branch fetches per cycle
system.cpu.fetch.rate                        1.996367                       # Number of inst fetches per cycle
system.cpu.icache.demand_hits::.cpu.inst     11271282                       # number of demand (read+write) hits
system.cpu.icache.demand_hits::total         11271282                       # number of demand (read+write) hits
system.cpu.icache.overall_hits::.cpu.inst     11271282                       # number of overall hits
system.cpu.icache.overall_hits::total        11271282                       # number of overall hits
system.cpu.icache.demand_misses::.cpu.inst          944                       # number of demand (read+write) misses
system.cpu.icache.demand_misses::total            944                       # number of demand (read+write) misses
system.cpu.icache.overall_misses::.cpu.inst          944                       # number of overall misses
system.cpu.icache.overall_misses::total           944                       # number of overall misses
system.cpu.icache.demand_miss_latency::.cpu.inst     54635235                       # number of demand (read+write) miss cycles
system.cpu.icache.demand_miss_latency::total     54635235                       # number of demand (read+write) miss cycles
system.cpu.icache.overall_miss_latency::.cpu.inst     54635235                       # number of overall miss cycles
system.cpu.icache.overall_miss_latency::total     54635235                       # number of overall miss cycles
system.cpu.icache.demand_accesses::.cpu.inst     11272226                       # number of demand (read+write) accesses
system.cpu.icache.demand_accesses::total     11272226                       # number of demand (read+write) accesses
system.cpu.icache.overall_accesses::.cpu.inst     11272226                       # number of overall (read+write) accesses
system.cpu.icache.overall_accesses::total     11272226                       # number of overall (read+write) accesses
system.cpu.icache.demand_miss_rate::.cpu.inst     0.000084                       # miss rate for demand accesses
system.cpu.icache.demand_miss_rate::total     0.000084                       # miss rate for demand accesses
system.cpu.icache.overall_miss_rate::.cpu.inst     0.000084                       # miss rate for overall accesses
system.cpu.icache.overall_miss_rate::total     0.000084                       # miss rate for overall accesses
system.cpu.icache.demand_avg_miss_latency::.cpu.inst 57876.308263                       # average overall miss latency
system.cpu.icache.demand_avg_miss_latency::total 57876.308263                       # average overall miss latency
system.cpu.icache.overall_avg_miss_latency::.cpu.inst 57876.308263                       # average overall miss latency
system.cpu.icache.overall_avg_miss_latency::total 57876.308263                       # average overall miss latency
system.cpu.icache.blocked_cycles::no_mshrs        13631                       # number of cycles access was blocked
system.cpu.icache.blocked_cycles::no_targets            0                       # number of cycles access was blocked
system.cpu.icache.blocked::no_mshrs               202                       # number of cycles access was blocked
system.cpu.icache.blocked::no_targets               0                       # number of cycles access was blocked
system.cpu.icache.avg_blocked_cycles::no_mshrs    67.480198                       # average number of cycles each access was blocked
system.cpu.icache.avg_blocked_cycles::no_targets          nan                       # average number of cycles each access was blocked
system.cpu.icache.writebacks::.writebacks          308                       # number of writebacks
system.cpu.icache.writebacks::total               308                       # number of writebacks
system.cpu.icache.demand_mshr_hits::.cpu.inst          144                       # number of demand (read+write) MSHR hits
system.cpu.icache.demand_mshr_hits::total          144                       # number of demand (read+write) MSHR hits
system.cpu.icache.overall_mshr_hits::.cpu.inst          144                       # number of overall MSHR hits
system.cpu.icache.overall_mshr_hits::total          144                       # number of overall MSHR hits
system.cpu.icache.demand_mshr_misses::.cpu.inst          800                       # number of demand (read+write) MSHR misses
system.cpu.icache.demand_mshr_misses::total          800                       # number of demand (read+write) MSHR misses
system.cpu.icache.overall_mshr_misses::.cpu.inst          800                       # number of overall MSHR misses
system.cpu.icache.overall_mshr_misses::total          800                       # number of overall MSHR misses
system.cpu.icache.demand_mshr_miss_latency::.cpu.inst     47930612                       # number of demand (read+write) MSHR miss cycles
system.cpu.icache.demand_mshr_miss_latency::total     47930612                       # number of demand (read+write) MSHR miss cycles
system.cpu.icache.overall_mshr_miss_latency::.cpu.inst     47930612                       # number of overall MSHR miss cycles
system.cpu.icache.overall_mshr_miss_latency::total     47930612                       # number of overall MSHR miss cycles
system.cpu.icache.demand_mshr_miss_rate::.cpu.inst     0.000071                       # mshr miss rate for demand accesses
system.cpu.icache.demand_mshr_miss_rate::total     0.000071                       # mshr miss rate for demand accesses
system.cpu.icache.overall_mshr_miss_rate::.cpu.inst     0.000071                       # mshr miss rate for overall accesses
system.cpu.icache.overall_mshr_miss_rate::total     0.000071                       # mshr miss rate for overall accesses
system.cpu.icache.demand_avg_mshr_miss_latency::.cpu.inst 59913.265000                       # average overall mshr miss latency
system.cpu.icache.demand_avg_mshr_miss_latency::total 59913.265000                       # average overall mshr miss latency
system.cpu.icache.overall_avg_mshr_miss_latency::.cpu.inst 59913.265000                       # average overall mshr miss latency
system.cpu.icache.overall_avg_mshr_miss_latency::total 59913.265000                       # average overall mshr miss latency
system.cpu.icache.replacements                    308                       # number of replacements
system.cpu.icache.ReadReq_hits::.cpu.inst     11271282                       # number of ReadReq hits
system.cpu.icache.ReadReq_hits::total        11271282                       # number of ReadReq hits
system.cpu.icache.ReadReq_misses::.cpu.inst          944                       # number of ReadReq misses
system.cpu.icache.ReadReq_misses::total           944                       # number of ReadReq misses
system.cpu.icache.ReadReq_miss_latency::.cpu.inst     54635235                       # number of ReadReq miss cycles
system.cpu.icache.ReadReq_miss_latency::total     54635235                       # number of ReadReq miss cycles
system.cpu.icache.ReadReq_accesses::.cpu.inst     11272226                       # number of ReadReq accesses(hits+misses)
system.cpu.icache.ReadReq_accesses::total     11272226                       # number of ReadReq accesses(hits+misses)
system.cpu.icache.ReadReq_miss_rate::.cpu.inst     0.000084                       # miss rate for ReadReq accesses
system.cpu.icache.ReadReq_miss_rate::total     0.000084                       # miss rate for ReadReq accesses
system.cpu.icache.ReadReq_avg_miss_latency::.cpu.inst 57876.308263                       # average ReadReq miss latency
system.cpu.icache.ReadReq_avg_miss_latency::total 57876.308263                       # average ReadReq miss latency
system.cpu.icache.ReadReq_mshr_hits::.cpu.inst          144                       # number of ReadReq MSHR hits
system.cpu.icache.ReadReq_mshr_hits::total          144                       # number of ReadReq MSHR hits
system.cpu.icache.ReadReq_mshr_misses::.cpu.inst          800                       # number of ReadReq MSHR misses
system.cpu.icache.ReadReq_mshr_misses::total          800                       # number of ReadReq MSHR misses
system.cpu.icache.ReadReq_mshr_miss_latency::.cpu.inst     47930612                       # number of ReadReq MSHR miss cycles
system.cpu.icache.ReadReq_mshr_miss_latency::total     47930612                       # number of ReadReq MSHR miss cycles
system.cpu.icache.ReadReq_mshr_miss_rate::.cpu.inst     0.000071                       # mshr miss rate for ReadReq accesses
system.cpu.icache.ReadReq_mshr_miss_rate::total     0.000071                       # mshr miss rate for ReadReq accesses
system.cpu.icache.ReadReq_avg_mshr_miss_latency::.cpu.inst 59913.265000                       # average ReadReq mshr miss latency
system.cpu.icache.ReadReq_avg_mshr_miss_latency::total 59913.265000                       # average ReadReq mshr miss latency
system.cpu.icache.power_state.pwrStateResidencyTicks::UNDEFINED  11043903750                       # Cumulative time (in ticks) in various power states
system.cpu.icache.tags.tagsinuse           413.359096                       # Cycle average of tags in use
system.cpu.icache.tags.total_refs            11272082                       # Total number of references to valid blocks.
system.cpu.icache.tags.sampled_refs               800                       # Sample count of references to valid blocks.
system.cpu.icache.tags.avg_refs          14090.102500                       # Average number of references to valid blocks.
system.cpu.icache.tags.warmup_cycle             77000                       # Cycle when the warmup percentage was hit.
system.cpu.icache.tags.occ_blocks::.cpu.inst   413.359096                       # Average occupied blocks per requestor
system.cpu.icache.tags.occ_percent::.cpu.inst     0.807342                       # Average percentage of cache occupancy
system.cpu.icache.tags.occ_percent::total     0.807342                       # Average percentage of cache occupancy
system.cpu.icache.tags.occ_task_id_blocks::1024          492                       # Occupied blocks per task id
system.cpu.icache.tags.age_task_id_blocks_1024::0           77                       # Occupied blocks per task id
system.cpu.icache.tags.age_task_id_blocks_1024::1          192                       # Occupied blocks per task id
system.cpu.icache.tags.age_task_id_blocks_1024::4          223                       # Occupied blocks per task id
system.cpu.icache.tags.occ_task_id_percent::1024     0.960938                       # Percentage of cache occupancy per task id
system.cpu.icache.tags.tag_accesses          45089704                       # Number of tag accesses
system.cpu.icache.tags.data_accesses         45089704                       # Number of data accesses
system.cpu.icache.tags.power_state.pwrStateResidencyTicks::UNDEFINED  11043903750                       # Cumulative time (in ticks) in various power states
system.cpu.itb.instHits                             0                       # ITB inst hits
system.cpu.itb.instMisses                           0                       # ITB inst misses
system.cpu.itb.readHits                             0                       # DTB read hits
system.cpu.itb.readMisses                           0                       # DTB read misses
system.cpu.itb.writeHits                            0                       # DTB write hits
system.cpu.itb.writeMisses                          0                       # DTB write misses
system.cpu.itb.inserts                              0                       # Number of times an entry is inserted into the TLB
system.cpu.itb.flushTlb                             0                       # Number of times complete TLB was flushed
system.cpu.itb.flushTlbMva                          0                       # Number of times TLB was flushed by MVA
system.cpu.itb.flushTlbMvaAsid                      0                       # Number of times TLB was flushed by MVA & ASID
system.cpu.itb.flushTlbAsid                         0                       # Number of times TLB was flushed by ASID
system.cpu.itb.flushedEntries                       0                       # Number of entries that have been flushed from TLB
system.cpu.itb.alignFaults                          0                       # Number of TLB faults due to alignment restrictions
system.cpu.itb.prefetchFaults                       0                       # Number of TLB faults due to prefetch
system.cpu.itb.domainFaults                         0                       # Number of TLB faults due to domain restrictions
system.cpu.itb.permsFaults                          0                       # Number of TLB faults due to permissions restrictions
system.cpu.itb.readAccesses                         0                       # DTB read accesses
system.cpu.itb.writeAccesses                        0                       # DTB write accesses
system.cpu.itb.instAccesses                         0                       # ITB inst accesses
system.cpu.itb.hits                                 0                       # Total TLB (inst and data) hits
system.cpu.itb.misses                               0                       # Total TLB (inst and data) misses
system.cpu.itb.accesses                             0                       # Total TLB (inst and data) accesses
system.cpu.itb.stage2_mmu.stage2_tlb.instHits            0                       # ITB inst hits
system.cpu.itb.stage2_mmu.stage2_tlb.instMisses            0                       # ITB inst misses
system.cpu.itb.stage2_mmu.stage2_tlb.readHits            0                       # DTB read hits
system.cpu.itb.stage2_mmu.stage2_tlb.readMisses            0                       # DTB read misses
system.cpu.itb.stage2_mmu.stage2_tlb.writeHits            0                       # DTB write hits
system.cpu.itb.stage2_mmu.stage2_tlb.writeMisses            0                       # DTB write misses
system.cpu.itb.stage2_mmu.stage2_tlb.inserts            0                       # Number of times an entry is inserted into the TLB
system.cpu.itb.stage2_mmu.stage2_tlb.flushTlb            0                       # Number of times complete TLB was flushed
[...]
system.mem_ctrls.requestorReadTotalLat::.cpu.data     41594250                       # Per-requestor read total memory access latency
system.mem_ctrls.requestorWriteTotalLat::.writebacks 253762956250                       # Per-requestor write total memory access latency
system.mem_ctrls.requestorReadAvgLat::.cpu.inst     28454.84                       # Per-requestor read average memory access latency
system.mem_ctrls.requestorReadAvgLat::.cpu.data     30010.28                       # Per-requestor read average memory access latency
system.mem_ctrls.requestorWriteAvgLat::.writebacks 221820765.95                       # Per-requestor write average memory access latency
system.mem_ctrls.dram.bytes_read::.cpu.inst        51200                       # Number of bytes read from this memory
system.mem_ctrls.dram.bytes_read::.cpu.data        88704                       # Number of bytes read from this memory
system.mem_ctrls.dram.bytes_read::total        139904                       # Number of bytes read from this memory
system.mem_ctrls.dram.bytes_inst_read::.cpu.inst        51200                       # Number of instructions bytes read from this memory
system.mem_ctrls.dram.bytes_inst_read::total        51200                       # Number of instructions bytes read from this memory
system.mem_ctrls.dram.bytes_written::.writebacks        50048                       # Number of bytes written to this memory
system.mem_ctrls.dram.bytes_written::total        50048                       # Number of bytes written to this memory
system.mem_ctrls.dram.num_reads::.cpu.inst          800                       # Number of read requests responded to by this memory
system.mem_ctrls.dram.num_reads::.cpu.data         1386                       # Number of read requests responded to by this memory
system.mem_ctrls.dram.num_reads::total           2186                       # Number of read requests responded to by this memory
system.mem_ctrls.dram.num_writes::.writebacks          782                       # Number of write requests responded to by this memory
system.mem_ctrls.dram.num_writes::total           782                       # Number of write requests responded to by this memory
system.mem_ctrls.dram.bw_read::.cpu.inst      4636042                       # Total read bandwidth from this memory (bytes/s)
system.mem_ctrls.dram.bw_read::.cpu.data      8031943                       # Total read bandwidth from this memory (bytes/s)
system.mem_ctrls.dram.bw_read::total         12667984                       # Total read bandwidth from this memory (bytes/s)
system.mem_ctrls.dram.bw_inst_read::.cpu.inst      4636042                       # Instruction read bandwidth from this memory (bytes/s)
system.mem_ctrls.dram.bw_inst_read::total      4636042                       # Instruction read bandwidth from this memory (bytes/s)
system.mem_ctrls.dram.bw_write::.writebacks      4531731                       # Write bandwidth from this memory (bytes/s)
system.mem_ctrls.dram.bw_write::total         4531731                       # Write bandwidth from this memory (bytes/s)
system.mem_ctrls.dram.bw_total::.writebacks      4531731                       # Total bandwidth to/from this memory (bytes/s)
system.mem_ctrls.dram.bw_total::.cpu.inst      4636042                       # Total bandwidth to/from this memory (bytes/s)
system.mem_ctrls.dram.bw_total::.cpu.data      8031943                       # Total bandwidth to/from this memory (bytes/s)
system.mem_ctrls.dram.bw_total::total        17199715                       # Total bandwidth to/from this memory (bytes/s)
system.mem_ctrls.dram.readBursts                 2177                       # Number of DRAM read bursts
system.mem_ctrls.dram.writeBursts                1114                       # Number of DRAM write bursts
system.mem_ctrls.dram.perBankRdBursts::0          228                       # Per bank write bursts
system.mem_ctrls.dram.perBankRdBursts::1           80                       # Per bank write bursts
system.mem_ctrls.dram.perBankRdBursts::2           90                       # Per bank write bursts
system.mem_ctrls.dram.perBankRdBursts::3          127                       # Per bank write bursts
system.mem_ctrls.dram.perBankRdBursts::4          134                       # Per bank write bursts
system.mem_ctrls.dram.perBankRdBursts::5           92                       # Per bank write bursts
system.mem_ctrls.dram.perBankRdBursts::6           83                       # Per bank write bursts
system.mem_ctrls.dram.perBankRdBursts::7           80                       # Per bank write bursts
system.mem_ctrls.dram.perBankRdBursts::8          172                       # Per bank write bursts
system.mem_ctrls.dram.perBankRdBursts::9          168                       # Per bank write bursts
system.mem_ctrls.dram.perBankRdBursts::10          184                       # Per bank write bursts
system.mem_ctrls.dram.perBankRdBursts::11          164                       # Per bank write bursts
system.mem_ctrls.dram.perBankRdBursts::12          166                       # Per bank write bursts
system.mem_ctrls.dram.perBankRdBursts::13          128                       # Per bank write bursts
system.mem_ctrls.dram.perBankRdBursts::14          136                       # Per bank write bursts
system.mem_ctrls.dram.perBankRdBursts::15          145                       # Per bank write bursts
system.mem_ctrls.dram.perBankWrBursts::0          134                       # Per bank write bursts
system.mem_ctrls.dram.perBankWrBursts::1           23                       # Per bank write bursts
system.mem_ctrls.dram.perBankWrBursts::2           35                       # Per bank write bursts
system.mem_ctrls.dram.perBankWrBursts::3           16                       # Per bank write bursts
system.mem_ctrls.dram.perBankWrBursts::4           65                       # Per bank write bursts
system.mem_ctrls.dram.perBankWrBursts::5           44                       # Per bank write bursts
system.mem_ctrls.dram.perBankWrBursts::6           26                       # Per bank write bursts
system.mem_ctrls.dram.perBankWrBursts::7           30                       # Per bank write bursts
system.mem_ctrls.dram.perBankWrBursts::8           89                       # Per bank write bursts
system.mem_ctrls.dram.perBankWrBursts::9          101                       # Per bank write bursts
system.mem_ctrls.dram.perBankWrBursts::10           73                       # Per bank write bursts
system.mem_ctrls.dram.perBankWrBursts::11           51                       # Per bank write bursts
system.mem_ctrls.dram.perBankWrBursts::12           77                       # Per bank write bursts
system.mem_ctrls.dram.perBankWrBursts::13          121                       # Per bank write bursts
system.mem_ctrls.dram.perBankWrBursts::14          117                       # Per bank write bursts
system.mem_ctrls.dram.perBankWrBursts::15          112                       # Per bank write bursts
system.mem_ctrls.dram.totQLat                23539375                       # Total ticks spent queuing
system.mem_ctrls.dram.totBusLat              10885000                       # Total ticks spent in databus transfers
system.mem_ctrls.dram.totMemAccLat           64358125                       # Total ticks spent from burst creation until serviced by the DRAM
system.mem_ctrls.dram.avgQLat                10812.76                       # Average queueing delay per DRAM burst
system.mem_ctrls.dram.avgBusLat               5000.00                       # Average bus latency per DRAM burst
system.mem_ctrls.dram.avgMemAccLat           29562.76                       # Average memory access latency per DRAM burst
system.mem_ctrls.dram.readRowHits                1824                       # Number of row buffer hits during reads
system.mem_ctrls.dram.writeRowHits                920                       # Number of row buffer hits during writes
system.mem_ctrls.dram.readRowHitRate            83.79                       # Row buffer hit rate for reads
system.mem_ctrls.dram.writeRowHitRate           82.59                       # Row buffer hit rate for writes
system.mem_ctrls.dram.bytesPerActivate::samples          536                       # Bytes accessed per row activation
system.mem_ctrls.dram.bytesPerActivate::mean   387.343284                       # Bytes accessed per row activation
system.mem_ctrls.dram.bytesPerActivate::gmean   234.788845                       # Bytes accessed per row activation
system.mem_ctrls.dram.bytesPerActivate::stdev   358.410011                       # Bytes accessed per row activation
system.mem_ctrls.dram.bytesPerActivate::0-127          151     28.17%     28.17% # Bytes accessed per row activation
system.mem_ctrls.dram.bytesPerActivate::128-255          114     21.27%     49.44% # Bytes accessed per row activation
system.mem_ctrls.dram.bytesPerActivate::256-383           62     11.57%     61.01% # Bytes accessed per row activation
system.mem_ctrls.dram.bytesPerActivate::384-511           36      6.72%     67.72% # Bytes accessed per row activation
system.mem_ctrls.dram.bytesPerActivate::512-639           35      6.53%     74.25% # Bytes accessed per row activation
system.mem_ctrls.dram.bytesPerActivate::640-767           20      3.73%     77.99% # Bytes accessed per row activation
system.mem_ctrls.dram.bytesPerActivate::768-895           16      2.99%     80.97% # Bytes accessed per row activation
system.mem_ctrls.dram.bytesPerActivate::896-1023            8      1.49%     82.46% # Bytes accessed per row activation
system.mem_ctrls.dram.bytesPerActivate::1024-1151           94     17.54%    100.00% # Bytes accessed per row activation
system.mem_ctrls.dram.bytesPerActivate::total          536                       # Bytes accessed per row activation
system.mem_ctrls.dram.bytesRead                139328                       # Total number of bytes read from DRAM
system.mem_ctrls.dram.bytesWritten              71296                       # Total number of bytes written to DRAM
system.mem_ctrls.dram.avgRdBW               12.615829                       # Average DRAM read bandwidth in MiBytes/s
system.mem_ctrls.dram.avgWrBW                6.455688                       # Average DRAM write bandwidth in MiBytes/s
system.mem_ctrls.dram.peakBW                 12800.00                       # Theoretical peak bandwidth in MiByte/s
system.mem_ctrls.dram.busUtil                    0.15                       # Data bus utilization in percentage
system.mem_ctrls.dram.busUtilRead                0.10                       # Data bus utilization in percentage for reads
system.mem_ctrls.dram.busUtilWrite               0.05                       # Data bus utilization in percentage for writes
system.mem_ctrls.dram.pageHitRate               83.38                       # Row buffer hit rate, read and write combined
system.mem_ctrls.dram.power_state.pwrStateResidencyTicks::UNDEFINED  11043903750                       # Cumulative time (in ticks) in various power states
system.mem_ctrls.dram.rank0.actEnergy         1742160                       # Energy for activate commands per rank (pJ)
system.mem_ctrls.dram.rank0.preEnergy          899415                       # Energy for precharge commands per rank (pJ)
system.mem_ctrls.dram.rank0.readEnergy        6525960                       # Energy for read commands per rank (pJ)
system.mem_ctrls.dram.rank0.writeEnergy       1947060                       # Energy for write commands per rank (pJ)
system.mem_ctrls.dram.rank0.refreshEnergy 871559520.000000                       # Energy for refresh commands per rank (pJ)
system.mem_ctrls.dram.rank0.actBackEnergy    208152600                       # Energy for active background per rank (pJ)
system.mem_ctrls.dram.rank0.preBackEnergy   4065572640                       # Energy for precharge background per rank (pJ)
system.mem_ctrls.dram.rank0.actPowerDownEnergy            0                       # Energy for active power-down per rank (pJ)
system.mem_ctrls.dram.rank0.prePowerDownEnergy            0                       # Energy for precharge power-down per rank (pJ)
system.mem_ctrls.dram.rank0.selfRefreshEnergy            0                       # Energy for self refresh per rank (pJ)
system.mem_ctrls.dram.rank0.totalEnergy    5156399355                       # Total energy per rank (pJ)
system.mem_ctrls.dram.rank0.averagePower   466.900063                       # Core power per rank (mW)
system.mem_ctrls.dram.rank0.totalIdleTime            0                       # Total Idle time Per DRAM Rank
system.mem_ctrls.dram.rank0.pwrStateTime::IDLE  10567611875                       # Time in different power states
system.mem_ctrls.dram.rank0.pwrStateTime::REF    368680000                       # Time in different power states
system.mem_ctrls.dram.rank0.pwrStateTime::SREF            0                       # Time in different power states
system.mem_ctrls.dram.rank0.pwrStateTime::PRE_PDN            0                       # Time in different power states
system.mem_ctrls.dram.rank0.pwrStateTime::ACT    107611875                       # Time in different power states
system.mem_ctrls.dram.rank0.pwrStateTime::ACT_PDN            0                       # Time in different power states
system.mem_ctrls.dram.rank1.actEnergy         2163420                       # Energy for activate commands per rank (pJ)
system.mem_ctrls.dram.rank1.preEnergy         1134705                       # Energy for precharge commands per rank (pJ)
system.mem_ctrls.dram.rank1.readEnergy        9017820                       # Energy for read commands per rank (pJ)
system.mem_ctrls.dram.rank1.writeEnergy       3868020                       # Energy for write commands per rank (pJ)
system.mem_ctrls.dram.rank1.refreshEnergy 871559520.000000                       # Energy for refresh commands per rank (pJ)
system.mem_ctrls.dram.rank1.actBackEnergy    212855100                       # Energy for active background per rank (pJ)
system.mem_ctrls.dram.rank1.preBackEnergy   4061612640                       # Energy for precharge background per rank (pJ)
system.mem_ctrls.dram.rank1.actPowerDownEnergy            0                       # Energy for active power-down per rank (pJ)
system.mem_ctrls.dram.rank1.prePowerDownEnergy            0                       # Energy for precharge power-down per rank (pJ)
system.mem_ctrls.dram.rank1.selfRefreshEnergy            0                       # Energy for self refresh per rank (pJ)
system.mem_ctrls.dram.rank1.totalEnergy    5162211225                       # Total energy per rank (pJ)
system.mem_ctrls.dram.rank1.averagePower   467.426314                       # Core power per rank (mW)
system.mem_ctrls.dram.rank1.totalIdleTime            0                       # Total Idle time Per DRAM Rank
system.mem_ctrls.dram.rank1.pwrStateTime::IDLE  10557329750                       # Time in different power states
system.mem_ctrls.dram.rank1.pwrStateTime::REF    368680000                       # Time in different power states
system.mem_ctrls.dram.rank1.pwrStateTime::SREF            0                       # Time in different power states
system.mem_ctrls.dram.rank1.pwrStateTime::PRE_PDN            0                       # Time in different power states
system.mem_ctrls.dram.rank1.pwrStateTime::ACT    117894000                       # Time in different power states
system.mem_ctrls.dram.rank1.pwrStateTime::ACT_PDN            0                       # Time in different power states
system.mem_ctrls.power_state.pwrStateResidencyTicks::UNDEFINED  11043903750                       # Cumulative time (in ticks) in various power states
system.membus.trans_dist::ReadResp               1034                       # Transaction distribution
system.membus.trans_dist::WritebackDirty          782                       # Transaction distribution
system.membus.trans_dist::WritebackClean          400                       # Transaction distribution
system.membus.trans_dist::ReadExReq              1152                       # Transaction distribution
system.membus.trans_dist::ReadExResp             1152                       # Transaction distribution
system.membus.trans_dist::ReadCleanReq            800                       # Transaction distribution
system.membus.trans_dist::ReadSharedReq           234                       # Transaction distribution
system.membus.pkt_count_system.cpu.icache.mem_side_port::system.mem_ctrls.port         1908                       # Packet count per connected requestor and responder (bytes)
system.membus.pkt_count_system.cpu.dcache.mem_side_port::system.mem_ctrls.port         3646                       # Packet count per connected requestor and responder (bytes)
system.membus.pkt_count::total                   5554                       # Packet count per connected requestor and responder (bytes)
system.membus.pkt_size_system.cpu.icache.mem_side_port::system.mem_ctrls.port        70912                       # Cumulative packet size per connected requestor and responder (bytes)
system.membus.pkt_size_system.cpu.dcache.mem_side_port::system.mem_ctrls.port       144640                       # Cumulative packet size per connected requestor and responder (bytes)
system.membus.pkt_size::total                  215552                       # Cumulative packet size per connected requestor and responder (bytes)
system.membus.snoops                                0                       # Total snoops (count)
system.membus.snoopTraffic                          0                       # Total snoop traffic (bytes)
system.membus.snoop_fanout::samples              2186                       # Request fanout histogram
system.membus.snoop_fanout::mean             0.024703                       # Request fanout histogram
system.membus.snoop_fanout::stdev            0.155253                       # Request fanout histogram
system.membus.snoop_fanout::underflows              0      0.00%      0.00% # Request fanout histogram
system.membus.snoop_fanout::0                    2132     97.53%     97.53% # Request fanout histogram
system.membus.snoop_fanout::1                      54      2.47%    100.00% # Request fanout histogram
system.membus.snoop_fanout::2                       0      0.00%    100.00% # Request fanout histogram
system.membus.snoop_fanout::3                       0      0.00%    100.00% # Request fanout histogram
system.membus.snoop_fanout::4                       0      0.00%    100.00% # Request fanout histogram
system.membus.snoop_fanout::overflows               0      0.00%    100.00% # Request fanout histogram
system.membus.snoop_fanout::min_value               0                       # Request fanout histogram
system.membus.snoop_fanout::max_value               1                       # Request fanout histogram
system.membus.snoop_fanout::total                2186                       # Request fanout histogram
system.membus.power_state.pwrStateResidencyTicks::UNDEFINED  11043903750                       # Cumulative time (in ticks) in various power states
system.membus.reqLayer0.occupancy             9330000                       # Layer occupancy (ticks)
system.membus.reqLayer0.utilization               0.1                       # Layer utilization (%)
system.membus.respLayer1.occupancy            4251000                       # Layer occupancy (ticks)
system.membus.respLayer1.utilization              0.0                       # Layer utilization (%)
system.membus.respLayer2.occupancy            7295875                       # Layer occupancy (ticks)
system.membus.respLayer2.utilization              0.1                       # Layer utilization (%)
system.voltage_domain.voltage                       1                       # Voltage in Volts

---------- End Simulation Statistics   ----------
