
---------- Begin Simulation Statistics ----------
final_tick                                10701691875                       # Number of ticks from beginning of simulation (restored from checkpoints and never reset)
host_inst_rate                                 300936                       # Simulator instruction rate (inst/s)
host_mem_usage                                 658092                       # Number of bytes of host memory used
host_op_rate                                   302944                       # Simulator op (including micro ops) rate (op/s)
host_seconds                                   111.11                       # Real time elapsed on the host
host_tick_rate                               96319836                       # Simulator tick rate (ticks/s)
sim_freq                                 1000000000000                       # Frequency of simulated ticks
sim_insts                                    33435691                       # Number of instructions simulated
sim_ops                                      33658812                       # Number of ops (including micro ops) simulated
sim_seconds                                  0.010702                       # Number of seconds simulated
sim_ticks                                 10701691875                       # Number of ticks simulated
system.cpu.cc_regfile_reads                 127454385                       # number of cc regfile reads
system.cpu.cc_regfile_writes                  3328015                       # number of cc regfile writes
system.cpu.committedInsts                    33435691                       # Number of Instructions Simulated
system.cpu.committedOps                      33658812                       # Number of Ops (including micro ops) Simulated
system.cpu.cpi                               0.512109                       # CPI: Cycles Per Instruction
system.cpu.cpi_total                         0.512109                       # CPI: Total CPI of All Threads
system.cpu.idleCycles                           40975                       # Total number of cycles that the CPU has spent unscheduled due to idling
system.cpu.iew.branchMispredicts                32357                       # Number of branch mispredicts detected at execute
system.cpu.iew.branch_mispredict_rate        1.006461                       # Percentage of branch mispredicts
system.cpu.iew.branch_percentage             9.448700                       # Percentage of branches executed
system.cpu.iew.exec_branches                  3214927                       # Number of branches executed
system.cpu.iew.exec_nop                             2                       # number of nop insts executed
system.cpu.iew.exec_rate                     1.987131                       # Inst execution rate
system.cpu.iew.exec_refs                     12346125                       # number of memory reference insts executed
system.cpu.iew.exec_stores                    3870562                       # Number of stores executed
system.cpu.iew.exec_swp                             0                       # number of swp insts executed
system.cpu.iew.iewBlockCycles                   50293                       # Number of cycles IEW is blocking
system.cpu.iew.iewDispLoadInsts               8582795                       # Number of dispatched load instructions
system.cpu.iew.iewDispNonSpecInsts                 68                       # Number of dispatched non-speculative instructions
system.cpu.iew.iewDispSquashedInsts                 0                       # Number of squashed instructions skipped by dispatch
system.cpu.iew.iewDispStoreInsts              3933061                       # Number of dispatched store instructions
system.cpu.iew.iewDispatchedInsts            34247087                       # Number of instructions dispatched to IQ
system.cpu.iew.iewExecLoadInsts               8475563                       # Number of load instructions executed
system.cpu.iew.iewExecSquashedInsts             85124                       # Number of squashed instructions skipped in execute
system.cpu.iew.iewExecutedInsts              34025071                       # Number of executed instructions
system.cpu.iew.iewIQFullEvents                      8                       # Number of times the IQ has become full, causing a stall
system.cpu.iew.iewIdleCycles                        0                       # Number of cycles IEW is idle
system.cpu.iew.iewLSQFullEvents                   224                       # Number of times the LSQ has become full, causing a stall
system.cpu.iew.iewSquashCycles                  32292                       # Number of cycles IEW is squashing
system.cpu.iew.iewUnblockCycles                   232                       # Number of cycles IEW is unblocking
system.cpu.iew.memOrderViolationEvents             59                       # Number of memory order violations
system.cpu.iew.predictedNotTakenIncorrect         1605                       # Number of branches that were predicted not taken incorrectly
system.cpu.iew.predictedTakenIncorrect          30752                       # Number of branches that were predicted taken incorrectly
system.cpu.iew.wb_consumers                  26244253                       # num instructions consuming a value
system.cpu.iew.wb_count                      34009184                       # cumulative count of insts written-back
system.cpu.iew.wb_fanout                     0.937006                       # average fanout of values written-back
system.cpu.iew.wb_producers                  24591028                       # num instructions producing a value
system.cpu.iew.wb_rate                       1.986204                       # insts written-back per cycle
system.cpu.iew.wb_sent                       34009378                       # cumulative count of insts sent to commit
system.cpu.int_regfile_reads                 33236935                       # number of integer regfile reads
system.cpu.int_regfile_writes                26919713                       # number of integer regfile writes
system.cpu.ipc                               1.952710                       # IPC: Instructions Per Cycle
system.cpu.ipc_total                         1.952710                       # IPC: Total IPC of All Threads
system.cpu.iq.FU_type_0::No_OpClass                 8      0.00%      0.00% # Type of FU issued
system.cpu.iq.FU_type_0::IntAlu              21713138     63.66%     63.66% # Type of FU issued
system.cpu.iq.FU_type_0::IntMult                  169      0.00%     63.66% # Type of FU issued
system.cpu.iq.FU_type_0::IntDiv                     0      0.00%     63.66% # Type of FU issued
system.cpu.iq.FU_type_0::FloatAdd                   0      0.00%     63.66% # Type of FU issued
system.cpu.iq.FU_type_0::FloatCmp                   0      0.00%     63.66% # Type of FU issued
system.cpu.iq.FU_type_0::FloatCvt                   0      0.00%     63.66% # Type of FU issued
system.cpu.iq.FU_type_0::FloatMult                  0      0.00%     63.66% # Type of FU issued
system.cpu.iq.FU_type_0::FloatMultAcc               0      0.00%     63.66% # Type of FU issued
system.cpu.iq.FU_type_0::FloatDiv                   0      0.00%     63.66% # Type of FU issued
system.cpu.iq.FU_type_0::FloatMisc                  0      0.00%     63.66% # Type of FU issued
system.cpu.iq.FU_type_0::FloatSqrt                  0      0.00%     63.66% # Type of FU issued
system.cpu.iq.FU_type_0::SimdAdd                    0      0.00%     63.66% # Type of FU issued
system.cpu.iq.FU_type_0::SimdAddAcc                 0      0.00%     63.66% # Type of FU issued
system.cpu.iq.FU_type_0::SimdAlu                    0      0.00%     63.66% # Type of FU issued
system.cpu.iq.FU_type_0::SimdCmp                    0      0.00%     63.66% # Type of FU issued
system.cpu.iq.FU_type_0::SimdCvt                    0      0.00%     63.66% # Type of FU issued
system.cpu.iq.FU_type_0::SimdMisc                   0      0.00%     63.66% # Type of FU issued
system.cpu.iq.FU_type_0::SimdMult                   0      0.00%     63.66% # Type of FU issued
system.cpu.iq.FU_type_0::SimdMultAcc                0      0.00%     63.66% # Type of FU issued
system.cpu.iq.FU_type_0::SimdShift                  0      0.00%     63.66% # Type of FU issued
system.cpu.iq.FU_type_0::SimdShiftAcc               0      0.00%     63.66% # Type of FU issued
system.cpu.iq.FU_type_0::SimdDiv                    0      0.00%     63.66% # Type of FU issued
system.cpu.iq.FU_type_0::SimdSqrt                   0      0.00%     63.66% # Type of FU issued
system.cpu.iq.FU_type_0::SimdFloatAdd               0      0.00%     63.66% # Type of FU issued
system.cpu.iq.FU_type_0::SimdFloatAlu               0      0.00%     63.66% # Type of FU issued
system.cpu.iq.FU_type_0::SimdFloatCmp               0      0.00%     63.66% # Type of FU issued
system.cpu.iq.FU_type_0::SimdFloatCvt               0      0.00%     63.66% # Type of FU issued
system.cpu.iq.FU_type_0::SimdFloatDiv               0      0.00%     63.66% # Type of FU issued
system.cpu.iq.FU_type_0::SimdFloatMisc              4      0.00%     63.66% # Type of FU issued
system.cpu.iq.FU_type_0::SimdFloatMult              0      0.00%     63.66% # Type of FU issued
system.cpu.iq.FU_type_0::SimdFloatMultAcc            0      0.00%     63.66% # Type of FU issued
system.cpu.iq.FU_type_0::SimdFloatSqrt              0      0.00%     63.66% # Type of FU issued
system.cpu.iq.FU_type_0::SimdReduceAdd              0      0.00%     63.66% # Type of FU issued
system.cpu.iq.FU_type_0::SimdReduceAlu              0      0.00%     63.66% # Type of FU issued
system.cpu.iq.FU_type_0::SimdReduceCmp              0      0.00%     63.66% # Type of FU issued
system.cpu.iq.FU_type_0::SimdFloatReduceAdd            0      0.00%     63.66% # Type of FU issued
system.cpu.iq.FU_type_0::SimdFloatReduceCmp            0      0.00%     63.66% # Type of FU issued
system.cpu.iq.FU_type_0::SimdAes                    0      0.00%     63.66% # Type of FU issued
system.cpu.iq.FU_type_0::SimdAesMix                 0      0.00%     63.66% # Type of FU issued
system.cpu.iq.FU_type_0::SimdSha1Hash               0      0.00%     63.66% # Type of FU issued
system.cpu.iq.FU_type_0::SimdSha1Hash2              0      0.00%     63.66% # Type of FU issued
system.cpu.iq.FU_type_0::SimdSha256Hash             0      0.00%     63.66% # Type of FU issued
system.cpu.iq.FU_type_0::SimdSha256Hash2            0      0.00%     63.66% # Type of FU issued
system.cpu.iq.FU_type_0::SimdShaSigma2              0      0.00%     63.66% # Type of FU issued
system.cpu.iq.FU_type_0::SimdShaSigma3              0      0.00%     63.66% # Type of FU issued
system.cpu.iq.FU_type_0::SimdPredAlu                0      0.00%     63.66% # Type of FU issued
system.cpu.iq.FU_type_0::MemRead              8522246     24.98%     88.64% # Type of FU issued
system.cpu.iq.FU_type_0::MemWrite             3874630     11.36%    100.00% # Type of FU issued
system.cpu.iq.FU_type_0::FloatMemRead               0      0.00%    100.00% # Type of FU issued
system.cpu.iq.FU_type_0::FloatMemWrite              0      0.00%    100.00% # Type of FU issued
system.cpu.iq.FU_type_0::IprAccess                  0      0.00%    100.00% # Type of FU issued
system.cpu.iq.FU_type_0::InstPrefetch               0      0.00%    100.00% # Type of FU issued
system.cpu.iq.FU_type_0::total               34110195                       # Type of FU issued
system.cpu.iq.fp_alu_accesses                       0                       # Number of floating point alu accesses
system.cpu.iq.fp_inst_queue_reads                   0                       # Number of floating instruction queue reads
system.cpu.iq.fp_inst_queue_wakeup_accesses            0                       # Number of floating instruction queue wakeup accesses
system.cpu.iq.fp_inst_queue_writes                  0                       # Number of floating instruction queue writes
system.cpu.iq.fu_busy_cnt                     2669392                       # FU busy when requested
system.cpu.iq.fu_busy_rate                   0.078258                       # FU busy rate (busy events/executed inst)
system.cpu.iq.fu_full::No_OpClass                   0      0.00%      0.00% # attempts to use FU when none available
system.cpu.iq.fu_full::IntAlu                  610736     22.88%     22.88% # attempts to use FU when none available
system.cpu.iq.fu_full::IntMult                     79      0.00%     22.88% # attempts to use FU when none available
system.cpu.iq.fu_full::IntDiv                       0      0.00%     22.88% # attempts to use FU when none available
system.cpu.iq.fu_full::FloatAdd                     0      0.00%     22.88% # attempts to use FU when none available
system.cpu.iq.fu_full::FloatCmp                     0      0.00%     22.88% # attempts to use FU when none available
system.cpu.iq.fu_full::FloatCvt                     0      0.00%     22.88% # attempts to use FU when none available
system.cpu.iq.fu_full::FloatMult                    0      0.00%     22.88% # attempts to use FU when none available
system.cpu.iq.fu_full::FloatMultAcc                 0      0.00%     22.88% # attempts to use FU when none available
system.cpu.iq.fu_full::FloatDiv                     0      0.00%     22.88% # attempts to use FU when none available
system.cpu.iq.fu_full::FloatMisc                    0      0.00%     22.88% # attempts to use FU when none available
system.cpu.iq.fu_full::FloatSqrt                    0      0.00%     22.88% # attempts to use FU when none available
system.cpu.iq.fu_full::SimdAdd                      0      0.00%     22.88% # attempts to use FU when none available
system.cpu.iq.fu_full::SimdAddAcc                   0      0.00%     22.88% # attempts to use FU when none available
system.cpu.iq.fu_full::SimdAlu                      0      0.00%     22.88% # attempts to use FU when none available
system.cpu.iq.fu_full::SimdCmp                      0      0.00%     22.88% # attempts to use FU when none available
system.cpu.iq.fu_full::SimdCvt                      0      0.00%     22.88% # attempts to use FU when none available
system.cpu.iq.fu_full::SimdMisc                     0      0.00%     22.88% # attempts to use FU when none available
system.cpu.iq.fu_full::SimdMult                     0      0.00%     22.88% # attempts to use FU when none available
system.cpu.iq.fu_full::SimdMultAcc                  0      0.00%     22.88% # attempts to use FU when none available
system.cpu.iq.fu_full::SimdShift                    0      0.00%     22.88% # attempts to use FU when none available
system.cpu.iq.fu_full::SimdShiftAcc                 0      0.00%     22.88% # attempts to use FU when none available
system.cpu.iq.fu_full::SimdDiv                      0      0.00%     22.88% # attempts to use FU when none available
system.cpu.iq.fu_full::SimdSqrt                     0      0.00%     22.88% # attempts to use FU when none available
system.cpu.iq.fu_full::SimdFloatAdd                 0      0.00%     22.88% # attempts to use FU when none available
system.cpu.iq.fu_full::SimdFloatAlu                 0      0.00%     22.88% # attempts to use FU when none available
system.cpu.iq.fu_full::SimdFloatCmp                 0      0.00%     22.88% # attempts to use FU when none available
system.cpu.iq.fu_full::SimdFloatCvt                 0      0.00%     22.88% # attempts to use FU when none available
system.cpu.iq.fu_full::SimdFloatDiv                 0      0.00%     22.88% # attempts to use FU when none available
system.cpu.iq.fu_full::SimdFloatMisc                0      0.00%     22.88% # attempts to use FU when none available
system.cpu.iq.fu_full::SimdFloatMult                0      0.00%     22.88% # attempts to use FU when none available
system.cpu.iq.fu_full::SimdFloatMultAcc             0      0.00%     22.88% # attempts to use FU when none available
system.cpu.iq.fu_full::SimdFloatSqrt                0      0.00%     22.88% # attempts to use FU when none available
system.cpu.iq.fu_full::SimdReduceAdd                0      0.00%     22.88% # attempts to use FU when none available
system.cpu.iq.fu_full::SimdReduceAlu                0      0.00%     22.88% # attempts to use FU when none available
system.cpu.iq.fu_full::SimdReduceCmp                0      0.00%     22.88% # attempts to use FU when none available
system.cpu.iq.fu_full::SimdFloatReduceAdd            0      0.00%     22.88% # attempts to use FU when none available
system.cpu.iq.fu_full::SimdFloatReduceCmp            0      0.00%     22.88% # attempts to use FU when none available
system.cpu.iq.fu_full::SimdAes                      0      0.00%     22.88% # attempts to use FU when none available
system.cpu.iq.fu_full::SimdAesMix                   0      0.00%     22.88% # attempts to use FU when none available
system.cpu.iq.fu_full::SimdSha1Hash                 0      0.00%     22.88% # attempts to use FU when none available
system.cpu.iq.fu_full::SimdSha1Hash2                0      0.00%     22.88% # attempts to use FU when none available
system.cpu.iq.fu_full::SimdSha256Hash               0      0.00%     22.88% # attempts to use FU when none available
system.cpu.iq.fu_full::SimdSha256Hash2              0      0.00%     22.88% # attempts to use FU when none available
system.cpu.iq.fu_full::SimdShaSigma2                0      0.00%     22.88% # attempts to use FU when none available
system.cpu.iq.fu_full::SimdShaSigma3                0      0.00%     22.88% # attempts to use FU when none available
system.cpu.iq.fu_full::SimdPredAlu                  0      0.00%     22.88% # attempts to use FU when none available
system.cpu.iq.fu_full::MemRead                1730445     64.83%     87.71% # attempts to use FU when none available
system.cpu.iq.fu_full::MemWrite                328132     12.29%    100.00% # attempts to use FU when none available
system.cpu.iq.fu_full::FloatMemRead                 0      0.00%    100.00% # attempts to use FU when none available
system.cpu.iq.fu_full::FloatMemWrite                0      0.00%    100.00% # attempts to use FU when none available
system.cpu.iq.fu_full::IprAccess                    0      0.00%    100.00% # attempts to use FU when none available
system.cpu.iq.fu_full::InstPrefetch                 0      0.00%    100.00% # attempts to use FU when none available
system.cpu.iq.int_alu_accesses               36779579                       # Number of integer alu accesses
system.cpu.iq.int_inst_queue_reads           87972564                       # Number of integer instruction queue reads
system.cpu.iq.int_inst_queue_wakeup_accesses     34009184                       # Number of integer instruction queue wakeup accesses
system.cpu.iq.int_inst_queue_writes          34835415                       # Number of integer instruction queue writes
system.cpu.iq.iqInstsAdded                   34246965                       # Number of instructions added to the IQ (excludes non-spec)
system.cpu.iq.iqInstsIssued                  34110195                       # Number of instructions issued
system.cpu.iq.iqNonSpecInstsAdded                 120                       # Number of non-speculative instructions added to the IQ
system.cpu.iq.iqSquashedInstsExamined          588272                       # Number of squashed instructions iterated over during squash; mainly for profiling
system.cpu.iq.iqSquashedInstsIssued              1049                       # Number of squashed instructions issued
system.cpu.iq.iqSquashedNonSpecRemoved              3                       # Number of squashed non-spec instructions that were removed
system.cpu.iq.iqSquashedOperandsExamined      1129414                       # Number of squashed operands that are examined and possibly removed from graph
system.cpu.iq.issued_per_cycle::samples      17081733                       # Number of insts issued each cycle
system.cpu.iq.issued_per_cycle::mean         1.996881                       # Number of insts issued each cycle
system.cpu.iq.issued_per_cycle::stdev        0.789444                       # Number of insts issued each cycle
system.cpu.iq.issued_per_cycle::underflows            0      0.00%      0.00% # Number of insts issued each cycle
system.cpu.iq.issued_per_cycle::0              472883      2.77%      2.77% # Number of insts issued each cycle
system.cpu.iq.issued_per_cycle::1             3895132     22.80%     25.57% # Number of insts issued each cycle
system.cpu.iq.issued_per_cycle::2             7961876     46.61%     72.18% # Number of insts issued each cycle
system.cpu.iq.issued_per_cycle::3             4716057     27.61%     99.79% # Number of insts issued each cycle
system.cpu.iq.issued_per_cycle::4               35785      0.21%    100.00% # Number of insts issued each cycle
system.cpu.iq.issued_per_cycle::5                   0      0.00%    100.00% # Number of insts issued each cycle
system.cpu.iq.issued_per_cycle::6                   0      0.00%    100.00% # Number of insts issued each cycle
system.cpu.iq.issued_per_cycle::7                   0      0.00%    100.00% # Number of insts issued each cycle
system.cpu.iq.issued_per_cycle::8                   0      0.00%    100.00% # Number of insts issued each cycle
system.cpu.iq.issued_per_cycle::overflows            0      0.00%    100.00% # Number of insts issued each cycle
system.cpu.iq.issued_per_cycle::min_value            0                       # Number of insts issued each cycle
system.cpu.iq.issued_per_cycle::max_value            4                       # Number of insts issued each cycle
system.cpu.iq.issued_per_cycle::total        17081733                       # Number of insts issued each cycle
system.cpu.iq.rate                           1.992103                       # Inst issue rate
system.cpu.iq.vec_alu_accesses                      0                       # Number of vector alu accesses
system.cpu.iq.vec_inst_queue_reads                  0                       # Number of vector instruction queue reads
system.cpu.iq.vec_inst_queue_wakeup_accesses            0                       # Number of vector instruction queue wakeup accesses
system.cpu.iq.vec_inst_queue_writes                 0                       # Number of vector instruction queue writes
system.cpu.memDep0.conflictingLoads            300638                       # Number of conflicting loads.
system.cpu.memDep0.conflictingStores              203                       # Number of conflicting stores.
system.cpu.memDep0.insertedLoads              8582795                       # Number of loads inserted to the mem dependence unit.
system.cpu.memDep0.insertedStores             3933061                       # Number of stores inserted to the mem dependence unit.
system.cpu.misc_regfile_reads               105191261                       # number of misc regfile reads
system.cpu.misc_regfile_writes                    206                       # number of misc regfile writes
system.cpu.numCycles                         17122708                       # number of cpu cycles simulated
system.cpu.numWorkItemsCompleted                    0                       # number of work items this cpu completed
system.cpu.numWorkItemsStarted                      0                       # number of work items this cpu started
system.cpu.timesIdled                             640                       # Number of times that the entire CPU went into an idle state and unscheduled itself
system.cpu.vec_regfile_reads                       32                       # number of vector regfile reads
system.cpu.workload.numSyscalls                    13                       # Number of system calls
system.membus.snoop_filter.hit_multi_requests           38                       # Number of requests hitting in the snoop filter with multiple (>1) holders of the requested data.
system.membus.snoop_filter.hit_multi_snoops            0                       # Number of snoops hitting in the snoop filter with multiple (>1) holders of the requested data.
system.membus.snoop_filter.hit_single_requests         1216                       # Number of requests hitting in the snoop filter with a single holder of the requested data.
system.membus.snoop_filter.hit_single_snoops            0                       # Number of snoops hitting in the snoop filter with a single holder of the requested data.
system.membus.snoop_filter.tot_requests          3405                       # Total number of requests made to the snoop filter.
system.membus.snoop_filter.tot_snoops               0                       # Total number of snoops made to the snoop filter.
system.clk_domain.clock                          1000                       # Clock period in ticks
system.cpu.branchPred.lookups                 3226120                       # Number of BP lookups
system.cpu.branchPred.condPredicted           1013886                       # Number of conditional branches predicted
system.cpu.branchPred.condIncorrect             32663                       # Number of conditional branches incorrect
system.cpu.branchPred.BTBLookups              2013494                       # Number of BTB lookups
system.cpu.branchPred.BTBHits                 2012516                       # Number of BTB hits
system.cpu.branchPred.BTBHitPct             99.951428                       # BTB Hit Percentage
system.cpu.branchPred.RASUsed                 1105044                       # Number of times the RAS was used to get a target.
system.cpu.branchPred.RASIncorrect                164                       # Number of incorrect RAS predictions.
system.cpu.branchPred.indirectLookups          100739                       # Number of indirect predictor lookups.
system.cpu.branchPred.indirectHits             100113                       # Number of indirect target hits.
system.cpu.branchPred.indirectMisses              626                       # Number of indirect misses.
system.cpu.branchPred.indirectMispredicted        27160                       # Number of mispredicted indirect branches.
system.cpu.commit.commitSquashedInsts          516343                       # The number of squashed insts skipped by commit
system.cpu.commit.commitNonSpecStalls             117                       # The number of times commit has been forced to stall to communicate backwards
system.cpu.commit.branchMispredicts             32202                       # The number of times a branch was mispredicted
system.cpu.commit.numCommittedDist::samples     16999867                       # Number of insts commited each cycle
system.cpu.commit.numCommittedDist::mean     1.979946                       # Number of insts commited each cycle
system.cpu.commit.numCommittedDist::stdev     2.392802                       # Number of insts commited each cycle
system.cpu.commit.numCommittedDist::underflows            0      0.00%      0.00% # Number of insts commited each cycle
system.cpu.commit.numCommittedDist::0         6173175     36.31%     36.31% # Number of insts commited each cycle
system.cpu.commit.numCommittedDist::1         4285781     25.21%     61.52% # Number of insts commited each cycle
system.cpu.commit.numCommittedDist::2         1257818      7.40%     68.92% # Number of insts commited each cycle
system.cpu.commit.numCommittedDist::3         1325333      7.80%     76.72% # Number of insts commited each cycle
system.cpu.commit.numCommittedDist::4         1154541      6.79%     83.51% # Number of insts commited each cycle
system.cpu.commit.numCommittedDist::5         1080285      6.35%     89.87% # Number of insts commited each cycle
system.cpu.commit.numCommittedDist::6          403855      2.38%     92.24% # Number of insts commited each cycle
system.cpu.commit.numCommittedDist::7          113955      0.67%     92.91% # Number of insts commited each cycle
system.cpu.commit.numCommittedDist::8         1205124      7.09%    100.00% # Number of insts commited each cycle
system.cpu.commit.numCommittedDist::overflows            0      0.00%    100.00% # Number of insts commited each cycle
system.cpu.commit.numCommittedDist::min_value            0                       # Number of insts commited each cycle
system.cpu.commit.numCommittedDist::max_value            8                       # Number of insts commited each cycle
system.cpu.commit.numCommittedDist::total     16999867                       # Number of insts commited each cycle
system.cpu.commit.instsCommitted             33435691                       # Number of instructions committed
system.cpu.commit.opsCommitted               33658812                       # Number of ops (including micro ops) committed
system.cpu.commit.memRefs                    12269756                       # Number of memory references committed
system.cpu.commit.loads                       8426843                       # Number of loads committed
system.cpu.commit.amos                              0                       # Number of atomic instructions committed
system.cpu.commit.membars                          52                       # Number of memory barriers committed
system.cpu.commit.branches                    3208608                       # Number of branches committed
system.cpu.commit.vector                            0                       # Number of committed Vector instructions.
system.cpu.commit.floating                          0                       # Number of committed floating point instructions.
system.cpu.commit.integer                    32651800                       # Number of committed integer instructions.
system.cpu.commit.functionCalls               1100703                       # Number of function calls committed.
system.cpu.commit.committedInstType_0::No_OpClass            0      0.00%      0.00% # Class of committed instruction
system.cpu.commit.committedInstType_0::IntAlu     21388897     63.55%     63.55% # Class of committed instruction
system.cpu.commit.committedInstType_0::IntMult          155      0.00%     63.55% # Class of committed instruction
system.cpu.commit.committedInstType_0::IntDiv            0      0.00%     63.55% # Class of committed instruction
system.cpu.commit.committedInstType_0::FloatAdd            0      0.00%     63.55% # Class of committed instruction
system.cpu.commit.committedInstType_0::FloatCmp            0      0.00%     63.55% # Class of committed instruction
system.cpu.commit.committedInstType_0::FloatCvt            0      0.00%     63.55% # Class of committed instruction
system.cpu.commit.committedInstType_0::FloatMult            0      0.00%     63.55% # Class of committed instruction
system.cpu.commit.committedInstType_0::FloatMultAcc            0      0.00%     63.55% # Class of committed instruction
system.cpu.commit.committedInstType_0::FloatDiv            0      0.00%     63.55% # Class of committed instruction
system.cpu.commit.committedInstType_0::FloatMisc            0      0.00%     63.55% # Class of committed instruction
system.cpu.commit.committedInstType_0::FloatSqrt            0      0.00%     63.55% # Class of committed instruction
system.cpu.commit.committedInstType_0::SimdAdd            0      0.00%     63.55% # Class of committed instruction
system.cpu.commit.committedInstType_0::SimdAddAcc            0      0.00%     63.55% # Class of committed instruction
system.cpu.commit.committedInstType_0::SimdAlu            0      0.00%     63.55% # Class of committed instruction
system.cpu.commit.committedInstType_0::SimdCmp            0      0.00%     63.55% # Class of committed instruction
system.cpu.commit.committedInstType_0::SimdCvt            0      0.00%     63.55% # Class of committed instruction
system.cpu.commit.committedInstType_0::SimdMisc            0      0.00%     63.55% # Class of committed instruction
system.cpu.commit.committedInstType_0::SimdMult            0      0.00%     63.55% # Class of committed instruction
system.cpu.commit.committedInstType_0::SimdMultAcc            0      0.00%     63.55% # Class of committed instruction
system.cpu.commit.committedInstType_0::SimdShift            0      0.00%     63.55% # Class of committed instruction
system.cpu.commit.committedInstType_0::SimdShiftAcc            0      0.00%     63.55% # Class of committed instruction
system.cpu.commit.committedInstType_0::SimdDiv            0      0.00%     63.55% # Class of committed instruction
system.cpu.commit.committedInstType_0::SimdSqrt            0      0.00%     63.55% # Class of committed instruction
system.cpu.commit.committedInstType_0::SimdFloatAdd            0      0.00%     63.55% # Class of committed instruction
system.cpu.commit.committedInstType_0::SimdFloatAlu            0      0.00%     63.55% # Class of committed instruction
system.cpu.commit.committedInstType_0::SimdFloatCmp            0      0.00%     63.55% # Class of committed instruction
system.cpu.commit.committedInstType_0::SimdFloatCvt            0      0.00%     63.55% # Class of committed instruction
system.cpu.commit.committedInstType_0::SimdFloatDiv            0      0.00%     63.55% # Class of committed instruction
system.cpu.commit.committedInstType_0::SimdFloatMisc            4      0.00%     63.55% # Class of committed instruction
system.cpu.commit.committedInstType_0::SimdFloatMult            0      0.00%     63.55% # Class of committed instruction
system.cpu.commit.committedInstType_0::SimdFloatMultAcc            0      0.00%     63.55% # Class of committed instruction
system.cpu.commit.committedInstType_0::SimdFloatSqrt            0      0.00%     63.55% # Class of committed instruction
system.cpu.commit.committedInstType_0::SimdReduceAdd            0      0.00%     63.55% # Class of committed instruction
system.cpu.commit.committedInstType_0::SimdReduceAlu            0      0.00%     63.55% # Class of committed instruction
system.cpu.commit.committedInstType_0::SimdReduceCmp            0      0.00%     63.55% # Class of committed instruction
system.cpu.commit.committedInstType_0::SimdFloatReduceAdd            0      0.00%     63.55% # Class of committed instruction
system.cpu.commit.committedInstType_0::SimdFloatReduceCmp            0      0.00%     63.55% # Class of committed instruction
system.cpu.commit.committedInstType_0::SimdAes            0      0.00%     63.55% # Class of committed instruction
system.cpu.commit.committedInstType_0::SimdAesMix            0      0.00%     63.55% # Class of committed instruction
system.cpu.commit.committedInstType_0::SimdSha1Hash            0      0.00%     63.55% # Class of committed instruction
system.cpu.commit.committedInstType_0::SimdSha1Hash2            0      0.00%     63.55% # Class of committed instruction
system.cpu.commit.committedInstType_0::SimdSha256Hash            0      0.00%     63.55% # Class of committed instruction
system.cpu.commit.committedInstType_0::SimdSha256Hash2            0      0.00%     63.55% # Class of committed instruction
system.cpu.commit.committedInstType_0::SimdShaSigma2            0      0.00%     63.55% # Class of committed instruction
system.cpu.commit.committedInstType_0::SimdShaSigma3            0      0.00%     63.55% # Class of committed instruction
system.cpu.commit.committedInstType_0::SimdPredAlu            0      0.00%     63.55% # Class of committed instruction
system.cpu.commit.committedInstType_0::MemRead      8426843     25.04%     88.58% # Class of committed instruction
system.cpu.commit.committedInstType_0::MemWrite      3842913     11.42%    100.00% # Class of committed instruction
system.cpu.commit.committedInstType_0::FloatMemRead            0      0.00%    100.00% # Class of committed instruction
system.cpu.commit.committedInstType_0::FloatMemWrite            0      0.00%    100.00% # Class of committed instruction
system.cpu.commit.committedInstType_0::IprAccess            0      0.00%    100.00% # Class of committed instruction
system.cpu.commit.committedInstType_0::InstPrefetch            0      0.00%    100.00% # Class of committed instruction
system.cpu.commit.committedInstType_0::total     33658812                       # Class of committed instruction
system.cpu.commit.commitEligibleSamples       1205124                       # number cycles where commit BW limit reached
system.cpu.dcache.demand_hits::.cpu.data     11412540                       # number of demand (read+write) hits
system.cpu.dcache.demand_hits::total         11412540                       # number of demand (read+write) hits
system.cpu.dcache.overall_hits::.cpu.data     11412540                       # number of overall hits
system.cpu.dcache.overall_hits::total        11412540                       # number of overall hits
system.cpu.dcache.demand_misses::.cpu.data         2567                       # number of demand (read+write) misses
system.cpu.dcache.demand_misses::total           2567                       # number of demand (read+write) misses
system.cpu.dcache.overall_misses::.cpu.data         2567                       # number of overall misses
system.cpu.dcache.overall_misses::total          2567                       # number of overall misses
system.cpu.dcache.demand_miss_latency::.cpu.data    156086000                       # number of demand (read+write) miss cycles
system.cpu.dcache.demand_miss_latency::total    156086000                       # number of demand (read+write) miss cycles
system.cpu.dcache.overall_miss_latency::.cpu.data    156086000                       # number of overall miss cycles
system.cpu.dcache.overall_miss_latency::total    156086000                       # number of overall miss cycles
system.cpu.dcache.demand_accesses::.cpu.data     11415107                       # number of demand (read+write) accesses
system.cpu.dcache.demand_accesses::total     11415107                       # number of demand (read+write) accesses
system.cpu.dcache.overall_accesses::.cpu.data     11415107                       # number of overall (read+write) accesses
system.cpu.dcache.overall_accesses::total     11415107                       # number of overall (read+write) accesses
system.cpu.dcache.demand_miss_rate::.cpu.data     0.000225                       # miss rate for demand accesses
system.cpu.dcache.demand_miss_rate::total     0.000225                       # miss rate for demand accesses
system.cpu.dcache.overall_miss_rate::.cpu.data     0.000225                       # miss rate for overall accesses
system.cpu.dcache.overall_miss_rate::total     0.000225                       # miss rate for overall accesses
system.cpu.dcache.demand_avg_miss_latency::.cpu.data 60804.830541                       # average overall miss latency
system.cpu.dcache.demand_avg_miss_latency::total 60804.830541                       # average overall miss latency
system.cpu.dcache.overall_avg_miss_latency::.cpu.data 60804.830541                       # average overall miss latency
system.cpu.dcache.overall_avg_miss_latency::total 60804.830541                       # average overall miss latency
system.cpu.dcache.blocked_cycles::no_mshrs            0                       # number of cycles access was blocked
system.cpu.dcache.blocked_cycles::no_targets         2902                       # number of cycles access was blocked
system.cpu.dcache.blocked::no_mshrs                 0                       # number of cycles access was blocked
system.cpu.dcache.blocked::no_targets              33                       # number of cycles access was blocked
system.cpu.dcache.avg_blocked_cycles::no_mshrs          nan                       # average number of cycles each access was blocked
system.cpu.dcache.avg_blocked_cycles::no_targets    87.939394                       # average number of cycles each access was blocked
system.cpu.dcache.writebacks::.writebacks          875                       # number of writebacks
system.cpu.dcache.writebacks::total               875                       # number of writebacks
system.cpu.dcache.demand_mshr_hits::.cpu.data         1180                       # number of demand (read+write) MSHR hits
system.cpu.dcache.demand_mshr_hits::total         1180                       # number of demand (read+write) MSHR hits
system.cpu.dcache.overall_mshr_hits::.cpu.data         1180                       # number of overall MSHR hits
system.cpu.dcache.overall_mshr_hits::total         1180                       # number of overall MSHR hits
system.cpu.dcache.demand_mshr_misses::.cpu.data         1387                       # number of demand (read+write) MSHR misses
system.cpu.dcache.demand_mshr_misses::total         1387                       # number of demand (read+write) MSHR misses
system.cpu.dcache.overall_mshr_misses::.cpu.data         1387                       # number of overall MSHR misses
system.cpu.dcache.overall_mshr_misses::total         1387                       # number of overall MSHR misses
system.cpu.dcache.demand_mshr_miss_latency::.cpu.data     86477875                       # number of demand (read+write) MSHR miss cycles
system.cpu.dcache.demand_mshr_miss_latency::total     86477875                       # number of demand (read+write) MSHR miss cycles
system.cpu.dcache.overall_mshr_miss_latency::.cpu.data     86477875                       # number of overall MSHR miss cycles
system.cpu.dcache.overall_mshr_miss_latency::total     86477875                       # number of overall MSHR miss cycles
system.cpu.dcache.demand_mshr_miss_rate::.cpu.data     0.000122                       # mshr miss rate for demand accesses
system.cpu.dcache.demand_mshr_miss_rate::total     0.000122                       # mshr miss rate for demand accesses
system.cpu.dcache.overall_mshr_miss_rate::.cpu.data     0.000122                       # mshr miss rate for overall accesses
system.cpu.dcache.overall_mshr_miss_rate::total     0.000122                       # mshr miss rate for overall accesses
system.cpu.dcache.demand_avg_mshr_miss_latency::.cpu.data 62348.864456                       # average overall mshr miss latency
system.cpu.dcache.demand_avg_mshr_miss_latency::total 62348.864456                       # average overall mshr miss latency
system.cpu.dcache.overall_avg_mshr_miss_latency::.cpu.data 62348.864456                       # average overall mshr miss latency
system.cpu.dcache.overall_avg_mshr_miss_latency::total 62348.864456                       # average overall mshr miss latency
system.cpu.dcache.replacements                    875                       # number of replacements
system.cpu.dcache.ReadReq_hits::.cpu.data      7667565                       # number of ReadReq hits
system.cpu.dcache.ReadReq_hits::total         7667565                       # number of ReadReq hits
system.cpu.dcache.ReadReq_misses::.cpu.data          444                       # number of ReadReq misses
system.cpu.dcache.ReadReq_misses::total           444                       # number of ReadReq misses
system.cpu.dcache.ReadReq_miss_latency::.cpu.data     28715875                       # number of ReadReq miss cycles
system.cpu.dcache.ReadReq_miss_latency::total     28715875                       # number of ReadReq miss cycles
system.cpu.dcache.ReadReq_accesses::.cpu.data      7668009                       # number of ReadReq accesses(hits+misses)
system.cpu.dcache.ReadReq_accesses::total      7668009                       # number of ReadReq accesses(hits+misses)
system.cpu.dcache.ReadReq_miss_rate::.cpu.data     0.000058                       # miss rate for ReadReq accesses
system.cpu.dcache.ReadReq_miss_rate::total     0.000058                       # miss rate for ReadReq accesses
system.cpu.dcache.ReadReq_avg_miss_latency::.cpu.data 64675.394144                       # average ReadReq miss latency
system.cpu.dcache.ReadReq_avg_miss_latency::total 64675.394144                       # average ReadReq miss latency
system.cpu.dcache.ReadReq_mshr_hits::.cpu.data          214                       # number of ReadReq MSHR hits
system.cpu.dcache.ReadReq_mshr_hits::total          214                       # number of ReadReq MSHR hits
system.cpu.dcache.ReadReq_mshr_misses::.cpu.data          230                       # number of ReadReq MSHR misses
system.cpu.dcache.ReadReq_mshr_misses::total          230                       # number of ReadReq MSHR misses
system.cpu.dcache.ReadReq_mshr_miss_latency::.cpu.data     15828125                       # number of ReadReq MSHR miss cycles
system.cpu.dcache.ReadReq_mshr_miss_latency::total     15828125                       # number of ReadReq MSHR miss cycles
system.cpu.dcache.ReadReq_mshr_miss_rate::.cpu.data     0.000030                       # mshr miss rate for ReadReq accesses
system.cpu.dcache.ReadReq_mshr_miss_rate::total     0.000030                       # mshr miss rate for ReadReq accesses
system.cpu.dcache.ReadReq_avg_mshr_miss_latency::.cpu.data 68817.934783                       # average ReadReq mshr miss latency
system.cpu.dcache.ReadReq_avg_mshr_miss_latency::total 68817.934783                       # average ReadReq mshr miss latency
system.cpu.dcache.WriteReq_hits::.cpu.data      3744975                       # number of WriteReq hits
system.cpu.dcache.WriteReq_hits::total        3744975                       # number of WriteReq hits
system.cpu.dcache.WriteReq_misses::.cpu.data         2123                       # number of WriteReq misses
system.cpu.dcache.WriteReq_misses::total         2123                       # number of WriteReq misses
system.cpu.dcache.WriteReq_miss_latency::.cpu.data    127370125                       # number of WriteReq miss cycles
system.cpu.dcache.WriteReq_miss_latency::total    127370125                       # number of WriteReq miss cycles
system.cpu.dcache.WriteReq_accesses::.cpu.data      3747098                       # number of WriteReq accesses(hits+misses)
system.cpu.dcache.WriteReq_accesses::total      3747098                       # number of WriteReq accesses(hits+misses)
system.cpu.dcache.WriteReq_miss_rate::.cpu.data     0.000567                       # miss rate for WriteReq accesses
system.cpu.dcache.WriteReq_miss_rate::total     0.000567                       # miss rate for WriteReq accesses
system.cpu.dcache.WriteReq_avg_miss_latency::.cpu.data 59995.348563                       # average WriteReq miss latency
system.cpu.dcache.WriteReq_avg_miss_latency::total 59995.348563                       # average WriteReq miss latency
system.cpu.dcache.WriteReq_mshr_hits::.cpu.data          966                       # number of WriteReq MSHR hits
system.cpu.dcache.WriteReq_mshr_hits::total          966                       # number of WriteReq MSHR hits
system.cpu.dcache.WriteReq_mshr_misses::.cpu.data         1157                       # number of WriteReq MSHR misses
system.cpu.dcache.WriteReq_mshr_misses::total         1157                       # number of WriteReq MSHR misses
system.cpu.dcache.WriteReq_mshr_miss_latency::.cpu.data     70649750                       # number of WriteReq MSHR miss cycles
system.cpu.dcache.WriteReq_mshr_miss_latency::total     70649750                       # number of WriteReq MSHR miss cycles
system.cpu.dcache.WriteReq_mshr_miss_rate::.cpu.data     0.000309                       # mshr miss rate for WriteReq accesses
system.cpu.dcache.WriteReq_mshr_miss_rate::total     0.000309                       # mshr miss rate for WriteReq accesses
system.cpu.dcache.WriteReq_avg_mshr_miss_latency::.cpu.data 61062.878133                       # average WriteReq mshr miss latency
system.cpu.dcache.WriteReq_avg_mshr_miss_latency::total 61062.878133                       # average WriteReq mshr miss latency
system.cpu.dcache.LoadLockedReq_hits::.cpu.data           50                       # number of LoadLockedReq hits
system.cpu.dcache.LoadLockedReq_hits::total           50                       # number of LoadLockedReq hits
system.cpu.dcache.LoadLockedReq_misses::.cpu.data            2                       # number of LoadLockedReq misses
system.cpu.dcache.LoadLockedReq_misses::total            2                       # number of LoadLockedReq misses
system.cpu.dcache.LoadLockedReq_miss_latency::.cpu.data        99375                       # number of LoadLockedReq miss cycles
system.cpu.dcache.LoadLockedReq_miss_latency::total        99375                       # number of LoadLockedReq miss cycles
system.cpu.dcache.LoadLockedReq_accesses::.cpu.data           52                       # number of LoadLockedReq accesses(hits+misses)
system.cpu.dcache.LoadLockedReq_accesses::total           52                       # number of LoadLockedReq accesses(hits+misses)
system.cpu.dcache.LoadLockedReq_miss_rate::.cpu.data     0.038462                       # miss rate for LoadLockedReq accesses
system.cpu.dcache.LoadLockedReq_miss_rate::total     0.038462                       # miss rate for LoadLockedReq accesses
system.cpu.dcache.LoadLockedReq_avg_miss_latency::.cpu.data 49687.500000                       # average LoadLockedReq miss latency
system.cpu.dcache.LoadLockedReq_avg_miss_latency::total 49687.500000                       # average LoadLockedReq miss latency
system.cpu.dcache.LoadLockedReq_mshr_hits::.cpu.data            2                       # number of LoadLockedReq MSHR hits
system.cpu.dcache.LoadLockedReq_mshr_hits::total            2                       # number of LoadLockedReq MSHR hits
system.cpu.dcache.StoreCondReq_hits::.cpu.data           51                       # number of StoreCondReq hits
system.cpu.dcache.StoreCondReq_hits::total           51                       # number of StoreCondReq hits
system.cpu.dcache.StoreCondReq_accesses::.cpu.data           51                       # number of StoreCondReq accesses(hits+misses)
system.cpu.dcache.StoreCondReq_accesses::total           51                       # number of StoreCondReq accesses(hits+misses)
system.cpu.dcache.power_state.pwrStateResidencyTicks::UNDEFINED  10701691875                       # Cumulative time (in ticks) in various power states
system.cpu.dcache.tags.tagsinuse           510.509310                       # Cycle average of tags in use
system.cpu.dcache.tags.total_refs            11414028                       # Total number of references to valid blocks.
system.cpu.dcache.tags.sampled_refs              1387                       # Sample count of references to valid blocks.
system.cpu.dcache.tags.avg_refs           8229.291997                       # Average number of references to valid blocks.
system.cpu.dcache.tags.warmup_cycle            149000                       # Cycle when the warmup percentage was hit.
system.cpu.dcache.tags.occ_blocks::.cpu.data   510.509310                       # Average occupied blocks per requestor
system.cpu.dcache.tags.occ_percent::.cpu.data     0.997088                       # Average percentage of cache occupancy
system.cpu.dcache.tags.occ_percent::total     0.997088                       # Average percentage of cache occupancy
system.cpu.dcache.tags.occ_task_id_blocks::1024          512                       # Occupied blocks per task id
system.cpu.dcache.tags.age_task_id_blocks_1024::0           41                       # Occupied blocks per task id
system.cpu.dcache.tags.age_task_id_blocks_1024::1           50                       # Occupied blocks per task id
system.cpu.dcache.tags.age_task_id_blocks_1024::4          421                       # Occupied blocks per task id
system.cpu.dcache.tags.occ_task_id_percent::1024            1                       # Percentage of cache occupancy per task id
system.cpu.dcache.tags.tag_accesses          45662227                       # Number of tag accesses
system.cpu.dcache.tags.data_accesses         45662227                       # Number of data accesses
system.cpu.dcache.tags.power_state.pwrStateResidencyTicks::UNDEFINED  10701691875                       # Cumulative time (in ticks) in various power states
system.cpu.decode.idleCycles                    83899                       # Number of cycles decode is idle
system.cpu.decode.blockedCycles                110509                       # Number of cycles decode is blocked
system.cpu.decode.runCycles                  16851529                       # Number of cycles decode is running
system.cpu.decode.unblockCycles                  3504                       # Number of cycles decode is unblocking
system.cpu.decode.squashCycles                  32292                       # Number of cycles decode is squashing
system.cpu.decode.branchResolved              2009425                       # Number of times decode resolved a  branch
system.cpu.decode.branchMispred                   491                       # Number of times decode detected a branch misprediction
system.cpu.decode.decodedInsts               34429377                       # Number of instructions handled by decode
system.cpu.decode.squashedInsts                132649                       # Number of squashed instructions handled by decode
system.cpu.dtb.instHits                             0                       # ITB inst hits
system.cpu.dtb.instMisses                           0                       # ITB inst misses
system.cpu.dtb.readHits                             0                       # DTB read hits
system.cpu.dtb.readMisses                           0                       # DTB read misses
system.cpu.dtb.writeHits                            0                       # DTB write hits
system.cpu.dtb.writeMisses                          0                       # DTB write misses
system.cpu.dtb.inserts                              0                       # Number of times an entry is inserted into the TLB
system.cpu.dtb.flushTlb                             0                       # Number of times complete TLB was flushed
system.cpu.dtb.flushTlbMva                          0                       # Number of times TLB was flushed by MVA
system.cpu.dtb.flushTlbMvaAsid                      0                       # Number of times TLB was flushed by MVA & ASID
system.cpu.dtb.flushTlbAsid                         0                       # Number of times TLB was flushed by ASID
system.cpu.dtb.flushedEntries                       0                       # Number of entries that have been flushed from TLB
system.cpu.dtb.alignFaults                          0                       # Number of TLB faults due to alignment restrictions
system.cpu.dtb.prefetchFaults                       0                       # Number of TLB faults due to prefetch
system.cpu.dtb.domainFaults                         0                       # Number of TLB faults due to domain restrictions
system.cpu.dtb.permsFaults                          0                       # Number of TLB faults due to permissions restrictions
system.cpu.dtb.readAccesses                         0                       # DTB read accesses
system.cpu.dtb.writeAccesses                        0                       # DTB write accesses
system.cpu.dtb.instAccesses                         0                       # ITB inst accesses
system.cpu.dtb.hits                                 0                       # Total TLB (inst and data) hits
system.cpu.dtb.misses                               0                       # Total TLB (inst and data) misses
system.cpu.dtb.accesses                             0                       # Total TLB (inst and data) accesses
system.cpu.dtb.stage2_mmu.stage2_tlb.instHits            0                       # ITB inst hits
system.cpu.dtb.stage2_mmu.stage2_tlb.instMisses            0                       # ITB inst misses
system.cpu.dtb.stage2_mmu.stage2_tlb.readHits            0                       # DTB read hits
system.cpu.dtb.stage2_mmu.stage2_tlb.readMisses            0                       # DTB read misses
system.cpu.dtb.stage2_mmu.stage2_tlb.writeHits            0                       # DTB write hits
system.cpu.dtb.stage2_mmu.stage2_tlb.writeMisses            0                       # DTB write misses
system.cpu.dtb.stage2_mmu.stage2_tlb.inserts            0                       # Number of times an entry is inserted into the TLB
system.cpu.dtb.stage2_mmu.stage2_tlb.flushTlb            0                       # Number of times complete TLB was flushed
system.cpu.dtb.stage2_mmu.stage2_tlb.flushTlbMva            0                       # Number of times TLB was flushed by MVA
system.cpu.dtb.stage2_mmu.stage2_tlb.flushTlbMvaAsid            0                       # Number of times TLB was flushed by MVA & ASID
system.cpu.dtb.stage2_mmu.stage2_tlb.flushTlbAsid            0                       # Number of times TLB was flushed by ASID
system.cpu.dtb.stage2_mmu.stage2_tlb.flushedEntries            0                       # Number of entries that have been flushed from TLB
system.cpu.dtb.stage2_mmu.stage2_tlb.alignFaults            0                       # Number of TLB faults due to alignment restrictions
system.cpu.dtb.stage2_mmu.stage2_tlb.prefetchFaults            0                       # Number of TLB faults due to prefetch
system.cpu.dtb.stage2_mmu.stage2_tlb.domainFaults            0                       # Number of TLB faults due to domain restrictions
system.cpu.dtb.stage2_mmu.stage2_tlb.permsFaults            0                       # Number of TLB faults due to permissions restrictions
system.cpu.dtb.stage2_mmu.stage2_tlb.readAccesses            0                       # DTB read accesses
system.cpu.dtb.stage2_mmu.stage2_tlb.writeAccesses            0                       # DTB write accesses
system.cpu.dtb.stage2_mmu.stage2_tlb.instAccesses            0                       # ITB inst accesses
system.cpu.dtb.stage2_mmu.stage2_tlb.hits            0                       # Total TLB (inst and data) hits
system.cpu.dtb.stage2_mmu.stage2_tlb.misses            0                       # Total TLB (inst and data) misses
system.cpu.dtb.stage2_mmu.stage2_tlb.accesses            0                       # Total TLB (inst and data) accesses
system.cpu.dtb.stage2_mmu.stage2_tlb.walker.walks            0                       # Table walker walks requested
system.cpu.dtb.stage2_mmu.stage2_tlb.walker.requestOrigin_Requested::Data            0                       # Table walker requests started/completed, data/inst
system.cpu.dtb.stage2_mmu.stage2_tlb.walker.requestOrigin_Requested::Inst            0                       # Table walker requests started/completed, data/inst
system.cpu.dtb.stage2_mmu.stage2_tlb.walker.requestOrigin_Requested::total            0                       # Table walker requests started/completed, data/inst
system.cpu.dtb.stage2_mmu.stage2_tlb.walker.requestOrigin_Completed::Data            0                       # Table walker requests started/completed, data/inst
system.cpu.dtb.stage2_mmu.stage2_tlb.walker.requestOrigin_Completed::Inst            0                       # Table walker requests started/completed, data/inst
system.cpu.dtb.stage2_mmu.stage2_tlb.walker.requestOrigin_Completed::total            0                       # Table walker requests started/completed, data/inst
system.cpu.dtb.stage2_mmu.stage2_tlb.walker.requestOrigin::total            0                       # Table walker requests started/completed, data/inst
system.cpu.dtb.stage2_mmu.stage2_tlb.walker.power_state.pwrStateResidencyTicks::UNDEFINED  10701691875                       # Cumulative time (in ticks) in various power states
system.cpu.dtb.walker.walks                         0                       # Table walker walks requested
system.cpu.dtb.walker.requestOrigin_Requested::Data            0                       # Table walker requests started/completed, data/inst
system.cpu.dtb.walker.requestOrigin_Requested::Inst            0                       # Table walker requests started/completed, data/inst
system.cpu.dtb.walker.requestOrigin_Requested::total            0                       # Table walker requests started/completed, data/inst
system.cpu.dtb.walker.requestOrigin_Completed::Data            0                       # Table walker requests started/completed, data/inst
system.cpu.dtb.walker.requestOrigin_Completed::Inst            0                       # Table walker requests started/completed, data/inst
system.cpu.dtb.walker.requestOrigin_Completed::total            0                       # Table walker requests started/completed, data/inst
system.cpu.dtb.walker.requestOrigin::total            0                       # Table walker requests started/completed, data/inst
system.cpu.dtb.walker.power_state.pwrStateResidencyTicks::UNDEFINED  10701691875                       # Cumulative time (in ticks) in various power states
system.cpu.dtb_walker_cache.blocked_cycles::no_mshrs            0                       # number of cycles access was blocked
system.cpu.dtb_walker_cache.blocked_cycles::no_targets            0                       # number of cycles access was blocked
system.cpu.dtb_walker_cache.blocked::no_mshrs            0                       # number of cycles access was blocked
system.cpu.dtb_walker_cache.blocked::no_targets            0                       # number of cycles access was blocked
system.cpu.dtb_walker_cache.avg_blocked_cycles::no_mshrs          nan                       # average number of cycles each access was blocked
system.cpu.dtb_walker_cache.avg_blocked_cycles::no_targets          nan                       # average number of cycles each access was blocked
system.cpu.dtb_walker_cache.replacements            0                       # number of replacements
system.cpu.dtb_walker_cache.power_state.pwrStateResidencyTicks::UNDEFINED  10701691875                       # Cumulative time (in ticks) in various power states
system.cpu.dtb_walker_cache.tags.tagsinuse            0                       # Cycle average of tags in use
system.cpu.dtb_walker_cache.tags.total_refs            0                       # Total number of references to valid blocks.
system.cpu.dtb_walker_cache.tags.sampled_refs            0                       # Sample count of references to valid blocks.
system.cpu.dtb_walker_cache.tags.avg_refs          nan                       # Average number of references to valid blocks.
system.cpu.dtb_walker_cache.tags.warmup_cycle            0                       # Cycle when the warmup percentage was hit.
system.cpu.dtb_walker_cache.tags.tag_accesses            0                       # Number of tag accesses
system.cpu.dtb_walker_cache.tags.data_accesses            0                       # Number of data accesses
system.cpu.dtb_walker_cache.tags.power_state.pwrStateResidencyTicks::UNDEFINED  10701691875                       # Cumulative time (in ticks) in various power states
system.cpu.fetch.icacheStallCycles              49691                       # Number of cycles fetch is stalled on an Icache miss
system.cpu.fetch.insts                       34385356                       # Number of instructions fetch has processed
system.cpu.fetch.branches                     3226120                       # Number of branches that fetch encountered
system.cpu.fetch.predictedBranches            3217673                       # Number of branches that fetch has predicted taken
system.cpu.fetch.cycles                      16998057                       # Number of cycles fetch has run and was not squashing or blocked
system.cpu.fetch.squashCycles                   65516                       # Number of cycles fetch has spent squashing
system.cpu.fetch.miscStallCycles                  392                       # Number of cycles fetch has spent waiting on interrupts,or bad addresses, or out of MSHRs
system.cpu.fetch.pendingTrapStallCycles           119                       # Number of stall cycles due to pending traps
system.cpu.fetch.icacheWaitRetryStallCycles          716                       # Number of stall cycles due to full MSHR
system.cpu.fetch.cacheLines                  10964772                       # Number of cache lines fetched
system.cpu.fetch.icacheSquashes                   527                       # Number of outstanding Icache misses that were squashed
system.cpu.fetch.nisnDist::samples           17081733                       # Number of instructions fetched each cycle (Total)
system.cpu.fetch.nisnDist::mean              2.027952                       # Number of instructions fetched each cycle (Total)
system.cpu.fetch.nisnDist::stdev             0.953533                       # Number of instructions fetched each cycle (Total)
system.cpu.fetch.nisnDist::underflows               0      0.00%      0.00% # Number of instructions fetched each cycle (Total)
system.cpu.fetch.nisnDist::0                   134354      0.79%      0.79% # Number of instructions fetched each cycle (Total)
system.cpu.fetch.nisnDist::1                  7130452     41.74%     42.53% # Number of instructions fetched each cycle (Total)
system.cpu.fetch.nisnDist::2                  1940304     11.36%     53.89% # Number of instructions fetched each cycle (Total)
system.cpu.fetch.nisnDist::3                  7876623     46.11%    100.00% # Number of instructions fetched each cycle (Total)
system.cpu.fetch.nisnDist::overflows                0      0.00%    100.00% # Number of instructions fetched each cycle (Total)
system.cpu.fetch.nisnDist::min_value                0                       # Number of instructions fetched each cycle (Total)
system.cpu.fetch.nisnDist::max_value                3                       # Number of instructions fetched each cycle (Total)
system.cpu.fetch.nisnDist::total             17081733                       # Number of instructions fetched each cycle (Total)
system.cpu.fetch.branchRate                  0.188412                       # Number of branch fetches per cycle
system.cpu.fetch.rate                        2.008173                       # Number of inst fetches per cycle
system.cpu.icache.demand_hits::.cpu.inst     10963766                       # number of demand (read+write) hits
system.cpu.icache.demand_hits::total         10963766                       # number of demand (read+write) hits
system.cpu.icache.overall_hits::.cpu.inst     10963766                       # number of overall hits
system.cpu.icache.overall_hits::total        10963766                       # number of overall hits
system.cpu.icache.demand_misses::.cpu.inst          999                       # number of demand (read+write) misses
system.cpu.icache.demand_misses::total            999                       # number of demand (read+write) misses
system.cpu.icache.overall_misses::.cpu.inst          999                       # number of overall misses
system.cpu.icache.overall_misses::total           999                       # number of overall misses
system.cpu.icache.demand_miss_latency::.cpu.inst     57564738                       # number of demand (read+write) miss cycles
system.cpu.icache.demand_miss_latency::total     57564738                       # number of demand (read+write) miss cycles
system.cpu.icache.overall_miss_latency::.cpu.inst     57564738                       # number of overall miss cycles
system.cpu.icache.overall_miss_latency::total     57564738                       # number of overall miss cycles
system.cpu.icache.demand_accesses::.cpu.inst     10964765                       # number of demand (read+write) accesses
system.cpu.icache.demand_accesses::total     10964765                       # number of demand (read+write) accesses
system.cpu.icache.overall_accesses::.cpu.inst     10964765                       # number of overall (read+write) accesses
system.cpu.icache.overall_accesses::total     10964765                       # number of overall (read+write) accesses
system.cpu.icache.demand_miss_rate::.cpu.inst     0.000091                       # miss rate for demand accesses
system.cpu.icache.demand_miss_rate::total     0.000091                       # miss rate for demand accesses
system.cpu.icache.overall_miss_rate::.cpu.inst     0.000091                       # miss rate for overall accesses
system.cpu.icache.overall_miss_rate::total     0.000091                       # miss rate for overall accesses
system.cpu.icache.demand_avg_miss_latency::.cpu.inst 57622.360360                       # average overall miss latency
system.cpu.icache.demand_avg_miss_latency::total 57622.360360                       # average overall miss latency
system.cpu.icache.overall_avg_miss_latency::.cpu.inst 57622.360360                       # average overall miss latency
system.cpu.icache.overall_avg_miss_latency::total 57622.360360                       # average overall miss latency
system.cpu.icache.blocked_cycles::no_mshrs        13865                       # number of cycles access was blocked
system.cpu.icache.blocked_cycles::no_targets            0                       # number of cycles access was blocked
system.cpu.icache.blocked::no_mshrs               205                       # number of cycles access was blocked
system.cpu.icache.blocked::no_targets               0                       # number of cycles access was blocked
system.cpu.icache.avg_blocked_cycles::no_mshrs    67.634146                       # average number of cycles each access was blocked
system.cpu.icache.avg_blocked_cycles::no_targets          nan                       # average number of cycles each access was blocked
system.cpu.icache.writebacks::.writebacks          324                       # number of writebacks
system.cpu.icache.writebacks::total               324                       # number of writebacks
system.cpu.icache.demand_mshr_hits::.cpu.inst          180                       # number of demand (read+write) MSHR hits
system.cpu.icache.demand_mshr_hits::total          180                       # number of demand (read+write) MSHR hits
system.cpu.icache.overall_mshr_hits::.cpu.inst          180                       # number of overall MSHR hits
system.cpu.icache.overall_mshr_hits::total          180                       # number of overall MSHR hits
system.cpu.icache.demand_mshr_misses::.cpu.inst          819                       # number of demand (read+write) MSHR misses
system.cpu.icache.demand_mshr_misses::total          819                       # number of demand (read+write) MSHR misses
system.cpu.icache.overall_mshr_misses::.cpu.inst          819                       # number of overall MSHR misses
system.cpu.icache.overall_mshr_misses::total          819                       # number of overall MSHR misses
system.cpu.icache.demand_mshr_miss_latency::.cpu.inst     48949489                       # number of demand (read+write) MSHR miss cycles
system.cpu.icache.demand_mshr_miss_latency::total     48949489                       # number of demand (read+write) MSHR miss cycles
system.cpu.icache.overall_mshr_miss_latency::.cpu.inst     48949489                       # number of overall MSHR miss cycles
system.cpu.icache.overall_mshr_miss_latency::total     48949489                       # number of overall MSHR miss cycles
system.cpu.icache.demand_mshr_miss_rate::.cpu.inst     0.000075                       # mshr miss rate for demand accesses
system.cpu.icache.demand_mshr_miss_rate::total     0.000075                       # mshr miss rate for demand accesses
system.cpu.icache.overall_mshr_miss_rate::.cpu.inst     0.000075                       # mshr miss rate for overall accesses
system.cpu.icache.overall_mshr_miss_rate::total     0.000075                       # mshr miss rate for overall accesses
system.cpu.icache.demand_avg_mshr_miss_latency::.cpu.inst 59767.385836                       # average overall mshr miss latency
system.cpu.icache.demand_avg_mshr_miss_latency::total 59767.385836                       # average overall mshr miss latency
system.cpu.icache.overall_avg_mshr_miss_latency::.cpu.inst 59767.385836                       # average overall mshr miss latency
system.cpu.icache.overall_avg_mshr_miss_latency::total 59767.385836                       # average overall mshr miss latency
system.cpu.icache.replacements                    324                       # number of replacements
system.cpu.icache.ReadReq_hits::.cpu.inst     10963766                       # number of ReadReq hits
system.cpu.icache.ReadReq_hits::total        10963766                       # number of ReadReq hits
system.cpu.icache.ReadReq_misses::.cpu.inst          999                       # number of ReadReq misses
system.cpu.icache.ReadReq_misses::total           999                       # number of ReadReq misses
system.cpu.icache.ReadReq_miss_latency::.cpu.inst     57564738                       # number of ReadReq miss cycles
system.cpu.icache.ReadReq_miss_latency::total     57564738                       # number of ReadReq miss cycles
system.cpu.icache.ReadReq_accesses::.cpu.inst     10964765                       # number of ReadReq accesses(hits+misses)
system.cpu.icache.ReadReq_accesses::total     10964765                       # number of ReadReq accesses(hits+misses)
system.cpu.icache.ReadReq_miss_rate::.cpu.inst     0.000091                       # miss rate for ReadReq accesses
system.cpu.icache.ReadReq_miss_rate::total     0.000091                       # miss rate for ReadReq accesses
system.cpu.icache.ReadReq_avg_miss_latency::.cpu.inst 57622.360360                       # average ReadReq miss latency
system.cpu.icache.ReadReq_avg_miss_latency::total 57622.360360                       # average ReadReq miss latency
system.cpu.icache.ReadReq_mshr_hits::.cpu.inst          180                       # number of ReadReq MSHR hits
system.cpu.icache.ReadReq_mshr_hits::total          180                       # number of ReadReq MSHR hits
system.cpu.icache.ReadReq_mshr_misses::.cpu.inst          819                       # number of ReadReq MSHR misses
system.cpu.icache.ReadReq_mshr_misses::total          819                       # number of ReadReq MSHR misses
system.cpu.icache.ReadReq_mshr_miss_latency::.cpu.inst     48949489                       # number of ReadReq MSHR miss cycles
system.cpu.icache.ReadReq_mshr_miss_latency::total     48949489                       # number of ReadReq MSHR miss cycles
system.cpu.icache.ReadReq_mshr_miss_rate::.cpu.inst     0.000075                       # mshr miss rate for ReadReq accesses
system.cpu.icache.ReadReq_mshr_miss_rate::total     0.000075                       # mshr miss rate for ReadReq accesses
system.cpu.icache.ReadReq_avg_mshr_miss_latency::.cpu.inst 59767.385836                       # average ReadReq mshr miss latency
system.cpu.icache.ReadReq_avg_mshr_miss_latency::total 59767.385836                       # average ReadReq mshr miss latency
system.cpu.icache.power_state.pwrStateResidencyTicks::UNDEFINED  10701691875                       # Cumulative time (in ticks) in various power states
system.cpu.icache.tags.tagsinuse           421.308280                       # Cycle average of tags in use
system.cpu.icache.tags.total_refs            10964584                       # Total number of references to valid blocks.
system.cpu.icache.tags.sampled_refs               818                       # Sample count of references to valid blocks.
system.cpu.icache.tags.avg_refs          13404.136919                       # Average number of references to valid blocks.
system.cpu.icache.tags.warmup_cycle             77000                       # Cycle when the warmup percentage was hit.
system.cpu.icache.tags.occ_blocks::.cpu.inst   421.308280                       # Average occupied blocks per requestor
system.cpu.icache.tags.occ_percent::.cpu.inst     0.822868                       # Average percentage of cache occupancy
system.cpu.icache.tags.occ_percent::total     0.822868                       # Average percentage of cache occupancy
system.cpu.icache.tags.occ_task_id_blocks::1024          494                       # Occupied blocks per task id
system.cpu.icache.tags.age_task_id_blocks_1024::0           78                       # Occupied blocks per task id
system.cpu.icache.tags.age_task_id_blocks_1024::1          196                       # Occupied blocks per task id
system.cpu.icache.tags.age_task_id_blocks_1024::4          220                       # Occupied blocks per task id
system.cpu.icache.tags.occ_task_id_percent::1024     0.964844                       # Percentage of cache occupancy per task id
system.cpu.icache.tags.tag_accesses          43859878                       # Number of tag accesses
system.cpu.icache.tags.data_accesses         43859878                       # Number of data accesses
system.cpu.icache.tags.power_state.pwrStateResidencyTicks::UNDEFINED  10701691875                       # Cumulative time (in ticks) in various power states
system.cpu.itb.instHits                             0                       # ITB inst hits
system.cpu.itb.instMisses                           0                       # ITB inst misses
system.cpu.itb.readHits                             0                       # DTB read hits
system.cpu.itb.readMisses                           0                       # DTB read misses
system.cpu.itb.writeHits                            0                       # DTB write hits
system.cpu.itb.writeMisses                          0                       # DTB write misses
system.cpu.itb.inserts                              0                       # Number of times an entry is inserted into the TLB
system.cpu.itb.flushTlb                             0                       # Number of times complete TLB was flushed
system.cpu.itb.flushTlbMva                          0                       # Number of times TLB was flushed by MVA
system.cpu.itb.flushTlbMvaAsid                      0                       # Number of times TLB was flushed by MVA & ASID
system.cpu.itb.flushTlbAsid                         0                       # Number of times TLB was flushed by ASID
system.cpu.itb.flushedEntries                       0                       # Number of entries that have been flushed from TLB
system.cpu.itb.alignFaults                          0                       # Number of TLB faults due to alignment restrictions
system.cpu.itb.prefetchFaults                       0                       # Number of TLB faults due to prefetch
system.cpu.itb.domainFaults                         0                       # Number of TLB faults due to domain restrictions
system.cpu.itb.permsFaults                          0                       # Number of TLB faults due to permissions restrictions
system.cpu.itb.readAccesses                         0                       # DTB read accesses
system.cpu.itb.writeAccesses                        0                       # DTB write accesses
system.cpu.itb.instAccesses                         0                       # ITB inst accesses
system.cpu.itb.hits                                 0                       # Total TLB (inst and data) hits
system.cpu.itb.misses                               0                       # Total TLB (inst and data) misses
system.cpu.itb.accesses                             0                       # Total TLB (inst and data) accesses
system.cpu.itb.stage2_mmu.stage2_tlb.instHits            0                       # ITB inst hits
system.cpu.itb.stage2_mmu.stage2_tlb.instMisses            0                       # ITB inst misses
system.cpu.itb.stage2_mmu.stage2_tlb.readHits            0                       # DTB read hits
system.cpu.itb.stage2_mmu.stage2_tlb.readMisses            0                       # DTB read misses
system.cpu.itb.stage2_mmu.stage2_tlb.writeHits            0                       # DTB write hits
system.cpu.itb.stage2_mmu.stage2_tlb.writeMisses            0                       # DTB write misses
system.cpu.itb.stage2_mmu.stage2_tlb.inserts            0                       # Number of times an entry is inserted into the TLB
system.cpu.itb.stage2_mmu.stage2_tlb.flushTlb            0                       # Number of times complete TLB was flushed
[...]
system.mem_ctrls.requestorReadTotalLat::.cpu.data     42040875                       # Per-requestor read total memory access latency
system.mem_ctrls.requestorWriteTotalLat::.writebacks 288183429500                       # Per-requestor write total memory access latency
system.mem_ctrls.requestorReadAvgLat::.cpu.inst     28381.26                       # Per-requestor read average memory access latency
system.mem_ctrls.requestorReadAvgLat::.cpu.data     30310.65                       # Per-requestor read average memory access latency
system.mem_ctrls.requestorWriteAvgLat::.writebacks 248220008.18                       # Per-requestor write average memory access latency
system.mem_ctrls.dram.bytes_read::.cpu.inst        52352                       # Number of bytes read from this memory
system.mem_ctrls.dram.bytes_read::.cpu.data        88768                       # Number of bytes read from this memory
system.mem_ctrls.dram.bytes_read::total        141120                       # Number of bytes read from this memory
system.mem_ctrls.dram.bytes_inst_read::.cpu.inst        52352                       # Number of instructions bytes read from this memory
system.mem_ctrls.dram.bytes_inst_read::total        52352                       # Number of instructions bytes read from this memory
system.mem_ctrls.dram.bytes_written::.writebacks        50048                       # Number of bytes written to this memory
system.mem_ctrls.dram.bytes_written::total        50048                       # Number of bytes written to this memory
system.mem_ctrls.dram.num_reads::.cpu.inst          818                       # Number of read requests responded to by this memory
system.mem_ctrls.dram.num_reads::.cpu.data         1387                       # Number of read requests responded to by this memory
system.mem_ctrls.dram.num_reads::total           2205                       # Number of read requests responded to by this memory
system.mem_ctrls.dram.num_writes::.writebacks          782                       # Number of write requests responded to by this memory
system.mem_ctrls.dram.num_writes::total           782                       # Number of write requests responded to by this memory
system.mem_ctrls.dram.bw_read::.cpu.inst      4891937                       # Total read bandwidth from this memory (bytes/s)
system.mem_ctrls.dram.bw_read::.cpu.data      8294763                       # Total read bandwidth from this memory (bytes/s)
system.mem_ctrls.dram.bw_read::total         13186700                       # Total read bandwidth from this memory (bytes/s)
system.mem_ctrls.dram.bw_inst_read::.cpu.inst      4891937                       # Instruction read bandwidth from this memory (bytes/s)
system.mem_ctrls.dram.bw_inst_read::total      4891937                       # Instruction read bandwidth from this memory (bytes/s)
system.mem_ctrls.dram.bw_write::.writebacks      4676644                       # Write bandwidth from this memory (bytes/s)
system.mem_ctrls.dram.bw_write::total         4676644                       # Write bandwidth from this memory (bytes/s)
system.mem_ctrls.dram.bw_total::.writebacks      4676644                       # Total bandwidth to/from this memory (bytes/s)
system.mem_ctrls.dram.bw_total::.cpu.inst      4891937                       # Total bandwidth to/from this memory (bytes/s)
system.mem_ctrls.dram.bw_total::.cpu.data      8294763                       # Total bandwidth to/from this memory (bytes/s)
system.mem_ctrls.dram.bw_total::total        17863344                       # Total bandwidth to/from this memory (bytes/s)
system.mem_ctrls.dram.readBursts                 2194                       # Number of DRAM read bursts
system.mem_ctrls.dram.writeBursts                1132                       # Number of DRAM write bursts
system.mem_ctrls.dram.perBankRdBursts::0          229                       # Per bank write bursts
system.mem_ctrls.dram.perBankRdBursts::1           77                       # Per bank write bursts
system.mem_ctrls.dram.perBankRdBursts::2           91                       # Per bank write bursts
system.mem_ctrls.dram.perBankRdBursts::3          131                       # Per bank write bursts
system.mem_ctrls.dram.perBankRdBursts::4          134                       # Per bank write bursts
system.mem_ctrls.dram.perBankRdBursts::5           92                       # Per bank write bursts
system.mem_ctrls.dram.perBankRdBursts::6           87                       # Per bank write bursts
system.mem_ctrls.dram.perBankRdBursts::7           82                       # Per bank write bursts
system.mem_ctrls.dram.perBankRdBursts::8          178                       # Per bank write bursts
system.mem_ctrls.dram.perBankRdBursts::9          168                       # Per bank write bursts
system.mem_ctrls.dram.perBankRdBursts::10          184                       # Per bank write bursts
system.mem_ctrls.dram.perBankRdBursts::11          165                       # Per bank write bursts
system.mem_ctrls.dram.perBankRdBursts::12          167                       # Per bank write bursts
system.mem_ctrls.dram.perBankRdBursts::13          128                       # Per bank write bursts
system.mem_ctrls.dram.perBankRdBursts::14          136                       # Per bank write bursts
system.mem_ctrls.dram.perBankRdBursts::15          145                       # Per bank write bursts
system.mem_ctrls.dram.perBankWrBursts::0          135                       # Per bank write bursts
system.mem_ctrls.dram.perBankWrBursts::1           22                       # Per bank write bursts
system.mem_ctrls.dram.perBankWrBursts::2           32                       # Per bank write bursts
system.mem_ctrls.dram.perBankWrBursts::3           13                       # Per bank write bursts
system.mem_ctrls.dram.perBankWrBursts::4           65                       # Per bank write bursts
system.mem_ctrls.dram.perBankWrBursts::5           45                       # Per bank write bursts
system.mem_ctrls.dram.perBankWrBursts::6           26                       # Per bank write bursts
system.mem_ctrls.dram.perBankWrBursts::7           32                       # Per bank write bursts
system.mem_ctrls.dram.perBankWrBursts::8           96                       # Per bank write bursts
system.mem_ctrls.dram.perBankWrBursts::9          107                       # Per bank write bursts
system.mem_ctrls.dram.perBankWrBursts::10           74                       # Per bank write bursts
system.mem_ctrls.dram.perBankWrBursts::11           55                       # Per bank write bursts
system.mem_ctrls.dram.perBankWrBursts::12           80                       # Per bank write bursts
system.mem_ctrls.dram.perBankWrBursts::13          121                       # Per bank write bursts
system.mem_ctrls.dram.perBankWrBursts::14          118                       # Per bank write bursts
system.mem_ctrls.dram.perBankWrBursts::15          111                       # Per bank write bursts
system.mem_ctrls.dram.totQLat                24147625                       # Total ticks spent queuing
system.mem_ctrls.dram.totBusLat              10970000                       # Total ticks spent in databus transfers
system.mem_ctrls.dram.totMemAccLat           65285125                       # Total ticks spent from burst creation until serviced by the DRAM
system.mem_ctrls.dram.avgQLat                11006.21                       # Average queueing delay per DRAM burst
system.mem_ctrls.dram.avgBusLat               5000.00                       # Average bus latency per DRAM burst
system.mem_ctrls.dram.avgMemAccLat           29756.21                       # Average memory access latency per DRAM burst
system.mem_ctrls.dram.readRowHits                1827                       # Number of row buffer hits during reads
system.mem_ctrls.dram.writeRowHits                930                       # Number of row buffer hits during writes
system.mem_ctrls.dram.readRowHitRate            83.27                       # Row buffer hit rate for reads
system.mem_ctrls.dram.writeRowHitRate           82.16                       # Row buffer hit rate for writes
system.mem_ctrls.dram.bytesPerActivate::samples          556                       # Bytes accessed per row activation
system.mem_ctrls.dram.bytesPerActivate::mean   377.093525                       # Bytes accessed per row activation
system.mem_ctrls.dram.bytesPerActivate::gmean   225.679275                       # Bytes accessed per row activation
system.mem_ctrls.dram.bytesPerActivate::stdev   358.654480                       # Bytes accessed per row activation
system.mem_ctrls.dram.bytesPerActivate::0-127          164     29.50%     29.50% # Bytes accessed per row activation
system.mem_ctrls.dram.bytesPerActivate::128-255          125     22.48%     51.98% # Bytes accessed per row activation
system.mem_ctrls.dram.bytesPerActivate::256-383           60     10.79%     62.77% # Bytes accessed per row activation
system.mem_ctrls.dram.bytesPerActivate::384-511           36      6.47%     69.24% # Bytes accessed per row activation
system.mem_ctrls.dram.bytesPerActivate::512-639           29      5.22%     74.46% # Bytes accessed per row activation
system.mem_ctrls.dram.bytesPerActivate::640-767           26      4.68%     79.14% # Bytes accessed per row activation
system.mem_ctrls.dram.bytesPerActivate::768-895           12      2.16%     81.29% # Bytes accessed per row activation
system.mem_ctrls.dram.bytesPerActivate::896-1023            5      0.90%     82.19% # Bytes accessed per row activation
system.mem_ctrls.dram.bytesPerActivate::1024-1151           99     17.81%    100.00% # Bytes accessed per row activation
system.mem_ctrls.dram.bytesPerActivate::total          556                       # Bytes accessed per row activation
system.mem_ctrls.dram.bytesRead                140416                       # Total number of bytes read from DRAM
system.mem_ctrls.dram.bytesWritten              72448                       # Total number of bytes written to DRAM
system.mem_ctrls.dram.avgRdBW               13.120916                       # Average DRAM read bandwidth in MiBytes/s
system.mem_ctrls.dram.avgWrBW                6.769771                       # Average DRAM write bandwidth in MiBytes/s
system.mem_ctrls.dram.peakBW                 12800.00                       # Theoretical peak bandwidth in MiByte/s
system.mem_ctrls.dram.busUtil                    0.16                       # Data bus utilization in percentage
system.mem_ctrls.dram.busUtilRead                0.10                       # Data bus utilization in percentage for reads
system.mem_ctrls.dram.busUtilWrite               0.05                       # Data bus utilization in percentage for writes
system.mem_ctrls.dram.pageHitRate               82.89                       # Row buffer hit rate, read and write combined
system.mem_ctrls.dram.power_state.pwrStateResidencyTicks::UNDEFINED  10701691875                       # Cumulative time (in ticks) in various power states
system.mem_ctrls.dram.rank0.actEnergy         1892100                       # Energy for activate commands per rank (pJ)
system.mem_ctrls.dram.rank0.preEnergy          979110                       # Energy for precharge commands per rank (pJ)
system.mem_ctrls.dram.rank0.readEnergy        6590220                       # Energy for read commands per rank (pJ)
system.mem_ctrls.dram.rank0.writeEnergy       1931400                       # Energy for write commands per rank (pJ)
system.mem_ctrls.dram.rank0.refreshEnergy 844515360.000000                       # Energy for refresh commands per rank (pJ)
system.mem_ctrls.dram.rank0.actBackEnergy    203039700                       # Energy for active background per rank (pJ)
system.mem_ctrls.dram.rank0.preBackEnergy   3938469120                       # Energy for precharge background per rank (pJ)
system.mem_ctrls.dram.rank0.actPowerDownEnergy            0                       # Energy for active power-down per rank (pJ)
system.mem_ctrls.dram.rank0.prePowerDownEnergy            0                       # Energy for precharge power-down per rank (pJ)
system.mem_ctrls.dram.rank0.selfRefreshEnergy            0                       # Energy for self refresh per rank (pJ)
system.mem_ctrls.dram.rank0.totalEnergy    4997417010                       # Total energy per rank (pJ)
system.mem_ctrls.dram.rank0.averagePower   466.974481                       # Core power per rank (mW)
system.mem_ctrls.dram.rank0.totalIdleTime            0                       # Total Idle time Per DRAM Rank
system.mem_ctrls.dram.rank0.pwrStateTime::IDLE  10237274125                       # Time in different power states
system.mem_ctrls.dram.rank0.pwrStateTime::REF    357240000                       # Time in different power states
system.mem_ctrls.dram.rank0.pwrStateTime::SREF            0                       # Time in different power states
system.mem_ctrls.dram.rank0.pwrStateTime::PRE_PDN            0                       # Time in different power states
system.mem_ctrls.dram.rank0.pwrStateTime::ACT    107177750                       # Time in different power states
system.mem_ctrls.dram.rank0.pwrStateTime::ACT_PDN            0                       # Time in different power states
system.mem_ctrls.dram.rank1.actEnergy         2170560                       # Energy for activate commands per rank (pJ)
system.mem_ctrls.dram.rank1.preEnergy         1130910                       # Energy for precharge commands per rank (pJ)
system.mem_ctrls.dram.rank1.readEnergy        9074940                       # Energy for read commands per rank (pJ)
system.mem_ctrls.dram.rank1.writeEnergy       3977640                       # Energy for write commands per rank (pJ)
system.mem_ctrls.dram.rank1.refreshEnergy 844515360.000000                       # Energy for refresh commands per rank (pJ)
system.mem_ctrls.dram.rank1.actBackEnergy    209622060                       # Energy for active background per rank (pJ)
system.mem_ctrls.dram.rank1.preBackEnergy   3932926080                       # Energy for precharge background per rank (pJ)
system.mem_ctrls.dram.rank1.actPowerDownEnergy            0                       # Energy for active power-down per rank (pJ)
system.mem_ctrls.dram.rank1.prePowerDownEnergy            0                       # Energy for precharge power-down per rank (pJ)
system.mem_ctrls.dram.rank1.selfRefreshEnergy            0                       # Energy for self refresh per rank (pJ)
system.mem_ctrls.dram.rank1.totalEnergy    5003417550                       # Total energy per rank (pJ)
system.mem_ctrls.dram.rank1.averagePower   467.535191                       # Core power per rank (mW)
system.mem_ctrls.dram.rank1.totalIdleTime            0                       # Total Idle time Per DRAM Rank
system.mem_ctrls.dram.rank1.pwrStateTime::IDLE  10222826875                       # Time in different power states
system.mem_ctrls.dram.rank1.pwrStateTime::REF    357240000                       # Time in different power states
system.mem_ctrls.dram.rank1.pwrStateTime::SREF            0                       # Time in different power states
system.mem_ctrls.dram.rank1.pwrStateTime::PRE_PDN            0                       # Time in different power states
system.mem_ctrls.dram.rank1.pwrStateTime::ACT    121625000                       # Time in different power states
system.mem_ctrls.dram.rank1.pwrStateTime::ACT_PDN            0                       # Time in different power states
system.mem_ctrls.power_state.pwrStateResidencyTicks::UNDEFINED  10701691875                       # Cumulative time (in ticks) in various power states
system.membus.trans_dist::ReadResp               1048                       # Transaction distribution
system.membus.trans_dist::WritebackDirty          782                       # Transaction distribution
system.membus.trans_dist::WritebackClean          417                       # Transaction distribution
system.membus.trans_dist::ReadExReq              1157                       # Transaction distribution
system.membus.trans_dist::ReadExResp             1157                       # Transaction distribution
system.membus.trans_dist::ReadCleanReq            819                       # Transaction distribution
system.membus.trans_dist::ReadSharedReq           230                       # Transaction distribution
system.membus.pkt_count_system.cpu.icache.mem_side_port::system.mem_ctrls.port         1961                       # Packet count per connected requestor and responder (bytes)
system.membus.pkt_count_system.cpu.dcache.mem_side_port::system.mem_ctrls.port         3649                       # Packet count per connected requestor and responder (bytes)
system.membus.pkt_count::total                   5610                       # Packet count per connected requestor and responder (bytes)
system.membus.pkt_size_system.cpu.icache.mem_side_port::system.mem_ctrls.port        73088                       # Cumulative packet size per connected requestor and responder (bytes)
system.membus.pkt_size_system.cpu.dcache.mem_side_port::system.mem_ctrls.port       144768                       # Cumulative packet size per connected requestor and responder (bytes)
system.membus.pkt_size::total                  217856                       # Cumulative packet size per connected requestor and responder (bytes)
system.membus.snoops                                0                       # Total snoops (count)
system.membus.snoopTraffic                          0                       # Total snoop traffic (bytes)
system.membus.snoop_fanout::samples              2206                       # Request fanout histogram
system.membus.snoop_fanout::mean             0.024932                       # Request fanout histogram
system.membus.snoop_fanout::stdev            0.155953                       # Request fanout histogram
system.membus.snoop_fanout::underflows              0      0.00%      0.00% # Request fanout histogram
system.membus.snoop_fanout::0                    2151     97.51%     97.51% # Request fanout histogram
system.membus.snoop_fanout::1                      55      2.49%    100.00% # Request fanout histogram
system.membus.snoop_fanout::2                       0      0.00%    100.00% # Request fanout histogram
system.membus.snoop_fanout::3                       0      0.00%    100.00% # Request fanout histogram
system.membus.snoop_fanout::4                       0      0.00%    100.00% # Request fanout histogram
system.membus.snoop_fanout::overflows               0      0.00%    100.00% # Request fanout histogram
system.membus.snoop_fanout::min_value               0                       # Request fanout histogram
system.membus.snoop_fanout::max_value               1                       # Request fanout histogram
system.membus.snoop_fanout::total                2206                       # Request fanout histogram
system.membus.power_state.pwrStateResidencyTicks::UNDEFINED  10701691875                       # Cumulative time (in ticks) in various power states
system.membus.reqLayer0.occupancy             9441750                       # Layer occupancy (ticks)
system.membus.reqLayer0.utilization               0.1                       # Layer utilization (%)
system.membus.respLayer1.occupancy            4351000                       # Layer occupancy (ticks)
system.membus.respLayer1.utilization              0.0                       # Layer utilization (%)
system.membus.respLayer2.occupancy            7307875                       # Layer occupancy (ticks)
system.membus.respLayer2.utilization              0.1                       # Layer utilization (%)
system.voltage_domain.voltage                       1                       # Voltage in Volts

---------- End Simulation Statistics   ----------
