
---------- Begin Simulation Statistics ----------
final_tick                                44856211250                       # Number of ticks from beginning of simulation (restored from checkpoints and never reset)
host_inst_rate                                 237031                       # Simulator instruction rate (inst/s)
host_mem_usage                                 656988                       # Number of bytes of host memory used
host_op_rate                                   258658                       # Simulator op (including micro ops) rate (op/s)
host_seconds                                   421.89                       # Real time elapsed on the host
host_tick_rate                              106323267                       # Simulator tick rate (ticks/s)
sim_freq                                 1000000000000                       # Frequency of simulated ticks
sim_insts                                   100000005                       # Number of instructions simulated
sim_ops                                     109123919                       # Number of ops (including micro ops) simulated
sim_seconds                                  0.044856                       # Number of seconds simulated
sim_ticks                                 44856211250                       # Number of ticks simulated
system.cpu.cc_regfile_reads                 417333253                       # number of cc regfile reads
system.cpu.cc_regfile_writes                 72474923                       # number of cc regfile writes
system.cpu.committedInsts                   100000005                       # Number of Instructions Simulated
system.cpu.committedOps                     109123919                       # Number of Ops (including micro ops) Simulated
system.cpu.cpi                               0.717699                       # CPI: Cycles Per Instruction
system.cpu.cpi_total                         0.717699                       # CPI: Total CPI of All Threads
system.cpu.idleCycles                           18733                       # Total number of cycles that the CPU has spent unscheduled due to idling
system.cpu.iew.branchMispredicts              1128932                       # Number of branch mispredicts detected at execute
system.cpu.iew.branch_mispredict_rate        5.087453                       # Percentage of branch mispredicts
system.cpu.iew.branch_percentage            18.966019                       # Percentage of branches executed
system.cpu.iew.exec_branches                 22190513                       # Number of branches executed
system.cpu.iew.exec_nop                            16                       # number of nop insts executed
system.cpu.iew.exec_rate                     1.630229                       # Inst execution rate
system.cpu.iew.exec_refs                     40320168                       # number of memory reference insts executed
system.cpu.iew.exec_stores                   16228533                       # Number of stores executed
system.cpu.iew.exec_swp                             0                       # number of swp insts executed
system.cpu.iew.iewBlockCycles                 1516931                       # Number of cycles IEW is blocking
system.cpu.iew.iewDispLoadInsts              25345525                       # Number of dispatched load instructions
system.cpu.iew.iewDispNonSpecInsts              90364                       # Number of dispatched non-speculative instructions
system.cpu.iew.iewDispSquashedInsts                 0                       # Number of squashed instructions skipped by dispatch
system.cpu.iew.iewDispStoreInsts             17435994                       # Number of dispatched store instructions
system.cpu.iew.iewDispatchedInsts           127716929                       # Number of instructions dispatched to IQ
system.cpu.iew.iewExecLoadInsts              24091635                       # Number of load instructions executed
system.cpu.iew.iewExecSquashedInsts           1316773                       # Number of squashed instructions skipped in execute
system.cpu.iew.iewExecutedInsts             117001426                       # Number of executed instructions
system.cpu.iew.iewIQFullEvents                      2                       # Number of times the IQ has become full, causing a stall
system.cpu.iew.iewIdleCycles                        0                       # Number of cycles IEW is idle
system.cpu.iew.iewLSQFullEvents                 16070                       # Number of times the LSQ has become full, causing a stall
system.cpu.iew.iewSquashCycles                 986199                       # Number of cycles IEW is squashing
system.cpu.iew.iewUnblockCycles                 16075                       # Number of cycles IEW is unblocking
system.cpu.iew.memOrderViolationEvents            673                       # Number of memory order violations
system.cpu.iew.predictedNotTakenIncorrect       579722                       # Number of branches that were predicted not taken incorrectly
system.cpu.iew.predictedTakenIncorrect         549210                       # Number of branches that were predicted taken incorrectly
system.cpu.iew.wb_consumers                 101496401                       # num instructions consuming a value
system.cpu.iew.wb_count                     115872560                       # cumulative count of insts written-back
system.cpu.iew.wb_fanout                     0.601127                       # average fanout of values written-back
system.cpu.iew.wb_producers                  61012193                       # num instructions producing a value
system.cpu.iew.wb_rate                       1.614500                       # insts written-back per cycle
system.cpu.iew.wb_sent                      116113747                       # cumulative count of insts sent to commit
system.cpu.int_regfile_reads                116174558                       # number of integer regfile reads
system.cpu.int_regfile_writes                58822338                       # number of integer regfile writes
system.cpu.ipc                               1.393341                       # IPC: Instructions Per Cycle
system.cpu.ipc_total                         1.393341                       # IPC: Total IPC of All Threads
system.cpu.iq.FU_type_0::No_OpClass                 0      0.00%      0.00% # Type of FU issued
system.cpu.iq.FU_type_0::IntAlu              76858802     64.96%     64.96% # Type of FU issued
system.cpu.iq.FU_type_0::IntMult               424191      0.36%     65.32% # Type of FU issued
system.cpu.iq.FU_type_0::IntDiv                     0      0.00%     65.32% # Type of FU issued
system.cpu.iq.FU_type_0::FloatAdd                   0      0.00%     65.32% # Type of FU issued
system.cpu.iq.FU_type_0::FloatCmp                   0      0.00%     65.32% # Type of FU issued
system.cpu.iq.FU_type_0::FloatCvt                   0      0.00%     65.32% # Type of FU issued
system.cpu.iq.FU_type_0::FloatMult                  0      0.00%     65.32% # Type of FU issued
system.cpu.iq.FU_type_0::FloatMultAcc               0      0.00%     65.32% # Type of FU issued
system.cpu.iq.FU_type_0::FloatDiv                   0      0.00%     65.32% # Type of FU issued
system.cpu.iq.FU_type_0::FloatMisc                  0      0.00%     65.32% # Type of FU issued
system.cpu.iq.FU_type_0::FloatSqrt                  0      0.00%     65.32% # Type of FU issued
system.cpu.iq.FU_type_0::SimdAdd                   19      0.00%     65.32% # Type of FU issued
system.cpu.iq.FU_type_0::SimdAddAcc                 2      0.00%     65.32% # Type of FU issued
system.cpu.iq.FU_type_0::SimdAlu                    0      0.00%     65.32% # Type of FU issued
system.cpu.iq.FU_type_0::SimdCmp                    0      0.00%     65.32% # Type of FU issued
system.cpu.iq.FU_type_0::SimdCvt                    0      0.00%     65.32% # Type of FU issued
system.cpu.iq.FU_type_0::SimdMisc                   0      0.00%     65.32% # Type of FU issued
system.cpu.iq.FU_type_0::SimdMult                   0      0.00%     65.32% # Type of FU issued
system.cpu.iq.FU_type_0::SimdMultAcc                0      0.00%     65.32% # Type of FU issued
system.cpu.iq.FU_type_0::SimdShift                 17      0.00%     65.32% # Type of FU issued
system.cpu.iq.FU_type_0::SimdShiftAcc               0      0.00%     65.32% # Type of FU issued
system.cpu.iq.FU_type_0::SimdDiv                    0      0.00%     65.32% # Type of FU issued
system.cpu.iq.FU_type_0::SimdSqrt                   0      0.00%     65.32% # Type of FU issued
system.cpu.iq.FU_type_0::SimdFloatAdd               0      0.00%     65.32% # Type of FU issued
system.cpu.iq.FU_type_0::SimdFloatAlu               0      0.00%     65.32% # Type of FU issued
system.cpu.iq.FU_type_0::SimdFloatCmp               0      0.00%     65.32% # Type of FU issued
system.cpu.iq.FU_type_0::SimdFloatCvt               0      0.00%     65.32% # Type of FU issued
system.cpu.iq.FU_type_0::SimdFloatDiv               0      0.00%     65.32% # Type of FU issued
system.cpu.iq.FU_type_0::SimdFloatMisc              0      0.00%     65.32% # Type of FU issued
system.cpu.iq.FU_type_0::SimdFloatMult              0      0.00%     65.32% # Type of FU issued
system.cpu.iq.FU_type_0::SimdFloatMultAcc            0      0.00%     65.32% # Type of FU issued
system.cpu.iq.FU_type_0::SimdFloatSqrt              0      0.00%     65.32% # Type of FU issued
system.cpu.iq.FU_type_0::SimdReduceAdd              0      0.00%     65.32% # Type of FU issued
system.cpu.iq.FU_type_0::SimdReduceAlu              0      0.00%     65.32% # Type of FU issued
system.cpu.iq.FU_type_0::SimdReduceCmp              0      0.00%     65.32% # Type of FU issued
system.cpu.iq.FU_type_0::SimdFloatReduceAdd            0      0.00%     65.32% # Type of FU issued
system.cpu.iq.FU_type_0::SimdFloatReduceCmp            0      0.00%     65.32% # Type of FU issued
system.cpu.iq.FU_type_0::SimdAes                    0      0.00%     65.32% # Type of FU issued
system.cpu.iq.FU_type_0::SimdAesMix                 0      0.00%     65.32% # Type of FU issued
system.cpu.iq.FU_type_0::SimdSha1Hash               0      0.00%     65.32% # Type of FU issued
system.cpu.iq.FU_type_0::SimdSha1Hash2              0      0.00%     65.32% # Type of FU issued
system.cpu.iq.FU_type_0::SimdSha256Hash             0      0.00%     65.32% # Type of FU issued
system.cpu.iq.FU_type_0::SimdSha256Hash2            0      0.00%     65.32% # Type of FU issued
system.cpu.iq.FU_type_0::SimdShaSigma2              0      0.00%     65.32% # Type of FU issued
system.cpu.iq.FU_type_0::SimdShaSigma3              0      0.00%     65.32% # Type of FU issued
system.cpu.iq.FU_type_0::SimdPredAlu                0      0.00%     65.32% # Type of FU issued
system.cpu.iq.FU_type_0::MemRead             24624227     20.81%     86.13% # Type of FU issued
system.cpu.iq.FU_type_0::MemWrite            16410944     13.87%    100.00% # Type of FU issued
system.cpu.iq.FU_type_0::FloatMemRead               0      0.00%    100.00% # Type of FU issued
system.cpu.iq.FU_type_0::FloatMemWrite              0      0.00%    100.00% # Type of FU issued
system.cpu.iq.FU_type_0::IprAccess                  0      0.00%    100.00% # Type of FU issued
system.cpu.iq.FU_type_0::InstPrefetch               0      0.00%    100.00% # Type of FU issued
system.cpu.iq.FU_type_0::total              118318202                       # Type of FU issued
system.cpu.iq.fp_alu_accesses                       0                       # Number of floating point alu accesses
system.cpu.iq.fp_inst_queue_reads                   0                       # Number of floating instruction queue reads
system.cpu.iq.fp_inst_queue_wakeup_accesses            0                       # Number of floating instruction queue wakeup accesses
system.cpu.iq.fp_inst_queue_writes                  0                       # Number of floating instruction queue writes
system.cpu.iq.fu_busy_cnt                    37081541                       # FU busy when requested
system.cpu.iq.fu_busy_rate                   0.313405                       # FU busy rate (busy events/executed inst)
system.cpu.iq.fu_full::No_OpClass                   0      0.00%      0.00% # attempts to use FU when none available
system.cpu.iq.fu_full::IntAlu                19797444     53.39%     53.39% # attempts to use FU when none available
system.cpu.iq.fu_full::IntMult                      0      0.00%     53.39% # attempts to use FU when none available
system.cpu.iq.fu_full::IntDiv                       0      0.00%     53.39% # attempts to use FU when none available
system.cpu.iq.fu_full::FloatAdd                     0      0.00%     53.39% # attempts to use FU when none available
system.cpu.iq.fu_full::FloatCmp                     0      0.00%     53.39% # attempts to use FU when none available
system.cpu.iq.fu_full::FloatCvt                     0      0.00%     53.39% # attempts to use FU when none available
system.cpu.iq.fu_full::FloatMult                    0      0.00%     53.39% # attempts to use FU when none available
system.cpu.iq.fu_full::FloatMultAcc                 0      0.00%     53.39% # attempts to use FU when none available
system.cpu.iq.fu_full::FloatDiv                     0      0.00%     53.39% # attempts to use FU when none available
system.cpu.iq.fu_full::FloatMisc                    0      0.00%     53.39% # attempts to use FU when none available
system.cpu.iq.fu_full::FloatSqrt                    0      0.00%     53.39% # attempts to use FU when none available
system.cpu.iq.fu_full::SimdAdd                      0      0.00%     53.39% # attempts to use FU when none available
system.cpu.iq.fu_full::SimdAddAcc                   0      0.00%     53.39% # attempts to use FU when none available
system.cpu.iq.fu_full::SimdAlu                      0      0.00%     53.39% # attempts to use FU when none available
system.cpu.iq.fu_full::SimdCmp                      0      0.00%     53.39% # attempts to use FU when none available
system.cpu.iq.fu_full::SimdCvt                      0      0.00%     53.39% # attempts to use FU when none available
system.cpu.iq.fu_full::SimdMisc                     0      0.00%     53.39% # attempts to use FU when none available
system.cpu.iq.fu_full::SimdMult                     0      0.00%     53.39% # attempts to use FU when none available
system.cpu.iq.fu_full::SimdMultAcc                  0      0.00%     53.39% # attempts to use FU when none available
system.cpu.iq.fu_full::SimdShift                    0      0.00%     53.39% # attempts to use FU when none available
system.cpu.iq.fu_full::SimdShiftAcc                 0      0.00%     53.39% # attempts to use FU when none available
system.cpu.iq.fu_full::SimdDiv                      0      0.00%     53.39% # attempts to use FU when none available
system.cpu.iq.fu_full::SimdSqrt                     0      0.00%     53.39% # attempts to use FU when none available
system.cpu.iq.fu_full::SimdFloatAdd                 0      0.00%     53.39% # attempts to use FU when none available
system.cpu.iq.fu_full::SimdFloatAlu                 0      0.00%     53.39% # attempts to use FU when none available
system.cpu.iq.fu_full::SimdFloatCmp                 0      0.00%     53.39% # attempts to use FU when none available
system.cpu.iq.fu_full::SimdFloatCvt                 0      0.00%     53.39% # attempts to use FU when none available
system.cpu.iq.fu_full::SimdFloatDiv                 0      0.00%     53.39% # attempts to use FU when none available
system.cpu.iq.fu_full::SimdFloatMisc                0      0.00%     53.39% # attempts to use FU when none available
system.cpu.iq.fu_full::SimdFloatMult                0      0.00%     53.39% # attempts to use FU when none available
system.cpu.iq.fu_full::SimdFloatMultAcc             0      0.00%     53.39% # attempts to use FU when none available
system.cpu.iq.fu_full::SimdFloatSqrt                0      0.00%     53.39% # attempts to use FU when none available
system.cpu.iq.fu_full::SimdReduceAdd                0      0.00%     53.39% # attempts to use FU when none available
system.cpu.iq.fu_full::SimdReduceAlu                0      0.00%     53.39% # attempts to use FU when none available
system.cpu.iq.fu_full::SimdReduceCmp                0      0.00%     53.39% # attempts to use FU when none available
system.cpu.iq.fu_full::SimdFloatReduceAdd            0      0.00%     53.39% # attempts to use FU when none available
system.cpu.iq.fu_full::SimdFloatReduceCmp            0      0.00%     53.39% # attempts to use FU when none available
system.cpu.iq.fu_full::SimdAes                      0      0.00%     53.39% # attempts to use FU when none available
system.cpu.iq.fu_full::SimdAesMix                   0      0.00%     53.39% # attempts to use FU when none available
system.cpu.iq.fu_full::SimdSha1Hash                 0      0.00%     53.39% # attempts to use FU when none available
system.cpu.iq.fu_full::SimdSha1Hash2                0      0.00%     53.39% # attempts to use FU when none available
system.cpu.iq.fu_full::SimdSha256Hash               0      0.00%     53.39% # attempts to use FU when none available
system.cpu.iq.fu_full::SimdSha256Hash2              0      0.00%     53.39% # attempts to use FU when none available
system.cpu.iq.fu_full::SimdShaSigma2                0      0.00%     53.39% # attempts to use FU when none available
system.cpu.iq.fu_full::SimdShaSigma3                0      0.00%     53.39% # attempts to use FU when none available
system.cpu.iq.fu_full::SimdPredAlu                  0      0.00%     53.39% # attempts to use FU when none available
system.cpu.iq.fu_full::MemRead               10500405     28.32%     81.71% # attempts to use FU when none available
system.cpu.iq.fu_full::MemWrite               6783692     18.29%    100.00% # attempts to use FU when none available
system.cpu.iq.fu_full::FloatMemRead                 0      0.00%    100.00% # attempts to use FU when none available
system.cpu.iq.fu_full::FloatMemWrite                0      0.00%    100.00% # attempts to use FU when none available
system.cpu.iq.fu_full::IprAccess                    0      0.00%    100.00% # attempts to use FU when none available
system.cpu.iq.fu_full::InstPrefetch                 0      0.00%    100.00% # attempts to use FU when none available
system.cpu.iq.int_alu_accesses              155399743                       # Number of integer alu accesses
system.cpu.iq.int_inst_queue_reads          347821599                       # Number of integer instruction queue reads
system.cpu.iq.int_inst_queue_wakeup_accesses    115872560                       # Number of integer instruction queue wakeup accesses
system.cpu.iq.int_inst_queue_writes         146310557                       # Number of integer instruction queue writes
system.cpu.iq.iqInstsAdded                  127536487                       # Number of instructions added to the IQ (excludes non-spec)
system.cpu.iq.iqInstsIssued                 118318202                       # Number of instructions issued
system.cpu.iq.iqNonSpecInstsAdded              180426                       # Number of non-speculative instructions added to the IQ
system.cpu.iq.iqSquashedInstsExamined        18592972                       # Number of squashed instructions iterated over during squash; mainly for profiling
system.cpu.iq.iqSquashedInstsIssued           2352451                       # Number of squashed instructions issued
system.cpu.iq.iqSquashedNonSpecRemoved            221                       # Number of squashed non-spec instructions that were removed
system.cpu.iq.iqSquashedOperandsExamined     48868895                       # Number of squashed operands that are examined and possibly removed from graph
system.cpu.iq.issued_per_cycle::samples      71751206                       # Number of insts issued each cycle
system.cpu.iq.issued_per_cycle::mean         1.649006                       # Number of insts issued each cycle
system.cpu.iq.issued_per_cycle::stdev        1.206052                       # Number of insts issued each cycle
system.cpu.iq.issued_per_cycle::underflows            0      0.00%      0.00% # Number of insts issued each cycle
system.cpu.iq.issued_per_cycle::0            18455451     25.72%     25.72% # Number of insts issued each cycle
system.cpu.iq.issued_per_cycle::1            10790889     15.04%     40.76% # Number of insts issued each cycle
system.cpu.iq.issued_per_cycle::2            23025081     32.09%     72.85% # Number of insts issued each cycle
system.cpu.iq.issued_per_cycle::3            16442040     22.92%     95.77% # Number of insts issued each cycle
system.cpu.iq.issued_per_cycle::4             3037694      4.23%    100.00% # Number of insts issued each cycle
system.cpu.iq.issued_per_cycle::5                  51      0.00%    100.00% # Number of insts issued each cycle
system.cpu.iq.issued_per_cycle::6                   0      0.00%    100.00% # Number of insts issued each cycle
system.cpu.iq.issued_per_cycle::7                   0      0.00%    100.00% # Number of insts issued each cycle
system.cpu.iq.issued_per_cycle::8                   0      0.00%    100.00% # Number of insts issued each cycle
system.cpu.iq.issued_per_cycle::overflows            0      0.00%    100.00% # Number of insts issued each cycle
system.cpu.iq.issued_per_cycle::min_value            0                       # Number of insts issued each cycle
system.cpu.iq.issued_per_cycle::max_value            5                       # Number of insts issued each cycle
system.cpu.iq.issued_per_cycle::total        71751206                       # Number of insts issued each cycle
system.cpu.iq.rate                           1.648576                       # Inst issue rate
system.cpu.iq.vec_alu_accesses                      0                       # Number of vector alu accesses
system.cpu.iq.vec_inst_queue_reads                  0                       # Number of vector instruction queue reads
system.cpu.iq.vec_inst_queue_wakeup_accesses            0                       # Number of vector instruction queue wakeup accesses
system.cpu.iq.vec_inst_queue_writes                 0                       # Number of vector instruction queue writes
system.cpu.memDep0.conflictingLoads           1109826                       # Number of conflicting loads.
system.cpu.memDep0.conflictingStores           631032                       # Number of conflicting stores.
system.cpu.memDep0.insertedLoads             25345525                       # Number of loads inserted to the mem dependence unit.
system.cpu.memDep0.insertedStores            17435994                       # Number of stores inserted to the mem dependence unit.
system.cpu.misc_regfile_reads               334227652                       # number of misc regfile reads
system.cpu.misc_regfile_writes                 360229                       # number of misc regfile writes
system.cpu.numCycles                         71769939                       # number of cpu cycles simulated
system.cpu.numWorkItemsCompleted                    0                       # number of work items this cpu completed
system.cpu.numWorkItemsStarted                      0                       # number of work items this cpu started
system.cpu.timesIdled                             299                       # Number of times that the entire CPU went into an idle state and unscheduled itself
system.cpu.vec_regfile_reads                    95564                       # number of vector regfile reads
system.cpu.vec_regfile_writes                   96664                       # number of vector regfile writes
system.cpu.workload.numSyscalls                    90                       # Number of system calls
system.membus.snoop_filter.hit_multi_requests           84                       # Number of requests hitting in the snoop filter with multiple (>1) holders of the requested data.
system.membus.snoop_filter.hit_multi_snoops            0                       # Number of snoops hitting in the snoop filter with multiple (>1) holders of the requested data.
system.membus.snoop_filter.hit_single_requests        59680                       # Number of requests hitting in the snoop filter with a single holder of the requested data.
system.membus.snoop_filter.hit_single_snoops            0                       # Number of snoops hitting in the snoop filter with a single holder of the requested data.
system.membus.snoop_filter.tot_requests        120226                       # Total number of requests made to the snoop filter.
system.membus.snoop_filter.tot_snoops               0                       # Total number of snoops made to the snoop filter.
system.clk_domain.clock                          1000                       # Clock period in ticks
system.cpu.branchPred.lookups                28657219                       # Number of BP lookups
system.cpu.branchPred.condPredicted          22989107                       # Number of conditional branches predicted
system.cpu.branchPred.condIncorrect           1133698                       # Number of conditional branches incorrect
system.cpu.branchPred.BTBLookups             12543870                       # Number of BTB lookups
system.cpu.branchPred.BTBHits                12068029                       # Number of BTB hits
system.cpu.branchPred.BTBHitPct             96.206585                       # BTB Hit Percentage
system.cpu.branchPred.RASUsed                 1807914                       # Number of times the RAS was used to get a target.
system.cpu.branchPred.RASIncorrect                513                       # Number of incorrect RAS predictions.
system.cpu.branchPred.indirectLookups          441005                       # Number of indirect predictor lookups.
system.cpu.branchPred.indirectHits             440800                       # Number of indirect target hits.
system.cpu.branchPred.indirectMisses              205                       # Number of indirect misses.
system.cpu.branchPred.indirectMispredicted         1211                       # Number of mispredicted indirect branches.
system.cpu.commit.commitSquashedInsts        16028976                       # The number of squashed insts skipped by commit
system.cpu.commit.commitNonSpecStalls          180205                       # The number of times commit has been forced to stall to communicate backwards
system.cpu.commit.branchMispredicts            984842                       # The number of times a branch was mispredicted
system.cpu.commit.numCommittedDist::samples     69248464                       # Number of insts commited each cycle
system.cpu.commit.numCommittedDist::mean     1.575832                       # Number of insts commited each cycle
system.cpu.commit.numCommittedDist::stdev     2.070426                       # Number of insts commited each cycle
system.cpu.commit.numCommittedDist::underflows            0      0.00%      0.00% # Number of insts commited each cycle
system.cpu.commit.numCommittedDist::0        28334563     40.92%     40.92% # Number of insts commited each cycle
system.cpu.commit.numCommittedDist::1        17302872     24.99%     65.90% # Number of insts commited each cycle
system.cpu.commit.numCommittedDist::2         7304590     10.55%     76.45% # Number of insts commited each cycle
system.cpu.commit.numCommittedDist::3         6345070      9.16%     85.62% # Number of insts commited each cycle
system.cpu.commit.numCommittedDist::4         2966849      4.28%     89.90% # Number of insts commited each cycle
system.cpu.commit.numCommittedDist::5         2089414      3.02%     92.92% # Number of insts commited each cycle
system.cpu.commit.numCommittedDist::6         1113582      1.61%     94.52% # Number of insts commited each cycle
system.cpu.commit.numCommittedDist::7         1151493      1.66%     96.19% # Number of insts commited each cycle
system.cpu.commit.numCommittedDist::8         2640031      3.81%    100.00% # Number of insts commited each cycle
system.cpu.commit.numCommittedDist::overflows            0      0.00%    100.00% # Number of insts commited each cycle
system.cpu.commit.numCommittedDist::min_value            0                       # Number of insts commited each cycle
system.cpu.commit.numCommittedDist::max_value            8                       # Number of insts commited each cycle
system.cpu.commit.numCommittedDist::total     69248464                       # Number of insts commited each cycle
system.cpu.commit.instsCommitted            100000005                       # Number of instructions committed
system.cpu.commit.opsCommitted              109123919                       # Number of ops (including micro ops) committed
system.cpu.commit.memRefs                    37273419                       # Number of memory references committed
system.cpu.commit.loads                      21632609                       # Number of loads committed
system.cpu.commit.amos                              0                       # Number of atomic instructions committed
system.cpu.commit.membars                       90058                       # Number of memory barriers committed
system.cpu.commit.branches                   21269205                       # Number of branches committed
system.cpu.commit.vector                            0                       # Number of committed Vector instructions.
system.cpu.commit.floating                          0                       # Number of committed floating point instructions.
system.cpu.commit.integer                    87226995                       # Number of committed integer instructions.
system.cpu.commit.functionCalls               1101808                       # Number of function calls committed.
system.cpu.commit.committedInstType_0::No_OpClass            0      0.00%      0.00% # Class of committed instruction
system.cpu.commit.committedInstType_0::IntAlu     71426310     65.45%     65.45% # Class of committed instruction
system.cpu.commit.committedInstType_0::IntMult       424190      0.39%     65.84% # Class of committed instruction
system.cpu.commit.committedInstType_0::IntDiv            0      0.00%     65.84% # Class of committed instruction
system.cpu.commit.committedInstType_0::FloatAdd            0      0.00%     65.84% # Class of committed instruction
system.cpu.commit.committedInstType_0::FloatCmp            0      0.00%     65.84% # Class of committed instruction
system.cpu.commit.committedInstType_0::FloatCvt            0      0.00%     65.84% # Class of committed instruction
system.cpu.commit.committedInstType_0::FloatMult            0      0.00%     65.84% # Class of committed instruction
system.cpu.commit.committedInstType_0::FloatMultAcc            0      0.00%     65.84% # Class of committed instruction
system.cpu.commit.committedInstType_0::FloatDiv            0      0.00%     65.84% # Class of committed instruction
system.cpu.commit.committedInstType_0::FloatMisc            0      0.00%     65.84% # Class of committed instruction
system.cpu.commit.committedInstType_0::FloatSqrt            0      0.00%     65.84% # Class of committed instruction
system.cpu.commit.committedInstType_0::SimdAdd            0      0.00%     65.84% # Class of committed instruction
system.cpu.commit.committedInstType_0::SimdAddAcc            0      0.00%     65.84% # Class of committed instruction
system.cpu.commit.committedInstType_0::SimdAlu            0      0.00%     65.84% # Class of committed instruction
system.cpu.commit.committedInstType_0::SimdCmp            0      0.00%     65.84% # Class of committed instruction
system.cpu.commit.committedInstType_0::SimdCvt            0      0.00%     65.84% # Class of committed instruction
system.cpu.commit.committedInstType_0::SimdMisc            0      0.00%     65.84% # Class of committed instruction
system.cpu.commit.committedInstType_0::SimdMult            0      0.00%     65.84% # Class of committed instruction
system.cpu.commit.committedInstType_0::SimdMultAcc            0      0.00%     65.84% # Class of committed instruction
system.cpu.commit.committedInstType_0::SimdShift            0      0.00%     65.84% # Class of committed instruction
system.cpu.commit.committedInstType_0::SimdShiftAcc            0      0.00%     65.84% # Class of committed instruction
system.cpu.commit.committedInstType_0::SimdDiv            0      0.00%     65.84% # Class of committed instruction
system.cpu.commit.committedInstType_0::SimdSqrt            0      0.00%     65.84% # Class of committed instruction
system.cpu.commit.committedInstType_0::SimdFloatAdd            0      0.00%     65.84% # Class of committed instruction
system.cpu.commit.committedInstType_0::SimdFloatAlu            0      0.00%     65.84% # Class of committed instruction
system.cpu.commit.committedInstType_0::SimdFloatCmp            0      0.00%     65.84% # Class of committed instruction
system.cpu.commit.committedInstType_0::SimdFloatCvt            0      0.00%     65.84% # Class of committed instruction
system.cpu.commit.committedInstType_0::SimdFloatDiv            0      0.00%     65.84% # Class of committed instruction
system.cpu.commit.committedInstType_0::SimdFloatMisc            0      0.00%     65.84% # Class of committed instruction
system.cpu.commit.committedInstType_0::SimdFloatMult            0      0.00%     65.84% # Class of committed instruction
system.cpu.commit.committedInstType_0::SimdFloatMultAcc            0      0.00%     65.84% # Class of committed instruction
system.cpu.commit.committedInstType_0::SimdFloatSqrt            0      0.00%     65.84% # Class of committed instruction
system.cpu.commit.committedInstType_0::SimdReduceAdd            0      0.00%     65.84% # Class of committed instruction
system.cpu.commit.committedInstType_0::SimdReduceAlu            0      0.00%     65.84% # Class of committed instruction
system.cpu.commit.committedInstType_0::SimdReduceCmp            0      0.00%     65.84% # Class of committed instruction
system.cpu.commit.committedInstType_0::SimdFloatReduceAdd            0      0.00%     65.84% # Class of committed instruction
system.cpu.commit.committedInstType_0::SimdFloatReduceCmp            0      0.00%     65.84% # Class of committed instruction
system.cpu.commit.committedInstType_0::SimdAes            0      0.00%     65.84% # Class of committed instruction
system.cpu.commit.committedInstType_0::SimdAesMix            0      0.00%     65.84% # Class of committed instruction
system.cpu.commit.committedInstType_0::SimdSha1Hash            0      0.00%     65.84% # Class of committed instruction
system.cpu.commit.committedInstType_0::SimdSha1Hash2            0      0.00%     65.84% # Class of committed instruction
system.cpu.commit.committedInstType_0::SimdSha256Hash            0      0.00%     65.84% # Class of committed instruction
system.cpu.commit.committedInstType_0::SimdSha256Hash2            0      0.00%     65.84% # Class of committed instruction
system.cpu.commit.committedInstType_0::SimdShaSigma2            0      0.00%     65.84% # Class of committed instruction
system.cpu.commit.committedInstType_0::SimdShaSigma3            0      0.00%     65.84% # Class of committed instruction
system.cpu.commit.committedInstType_0::SimdPredAlu            0      0.00%     65.84% # Class of committed instruction
system.cpu.commit.committedInstType_0::MemRead     21632609     19.82%     85.67% # Class of committed instruction
system.cpu.commit.committedInstType_0::MemWrite     15640810     14.33%    100.00% # Class of committed instruction
system.cpu.commit.committedInstType_0::FloatMemRead            0      0.00%    100.00% # Class of committed instruction
system.cpu.commit.committedInstType_0::FloatMemWrite            0      0.00%    100.00% # Class of committed instruction
system.cpu.commit.committedInstType_0::IprAccess            0      0.00%    100.00% # Class of committed instruction
system.cpu.commit.committedInstType_0::InstPrefetch            0      0.00%    100.00% # Class of committed instruction
system.cpu.commit.committedInstType_0::total    109123919                       # Class of committed instruction
system.cpu.commit.commitEligibleSamples       2640031                       # number cycles where commit BW limit reached
system.cpu.dcache.demand_hits::.cpu.data     36277611                       # number of demand (read+write) hits
system.cpu.dcache.demand_hits::total         36277611                       # number of demand (read+write) hits
system.cpu.dcache.overall_hits::.cpu.data     36280982                       # number of overall hits
system.cpu.dcache.overall_hits::total        36280982                       # number of overall hits
system.cpu.dcache.demand_misses::.cpu.data       136197                       # number of demand (read+write) misses
system.cpu.dcache.demand_misses::total         136197                       # number of demand (read+write) misses
system.cpu.dcache.overall_misses::.cpu.data       136238                       # number of overall misses
system.cpu.dcache.overall_misses::total        136238                       # number of overall misses
system.cpu.dcache.demand_miss_latency::.cpu.data   8579998374                       # number of demand (read+write) miss cycles
system.cpu.dcache.demand_miss_latency::total   8579998374                       # number of demand (read+write) miss cycles
system.cpu.dcache.overall_miss_latency::.cpu.data   8579998374                       # number of overall miss cycles
system.cpu.dcache.overall_miss_latency::total   8579998374                       # number of overall miss cycles
system.cpu.dcache.demand_accesses::.cpu.data     36413808                       # number of demand (read+write) accesses
system.cpu.dcache.demand_accesses::total     36413808                       # number of demand (read+write) accesses
system.cpu.dcache.overall_accesses::.cpu.data     36417220                       # number of overall (read+write) accesses
system.cpu.dcache.overall_accesses::total     36417220                       # number of overall (read+write) accesses
system.cpu.dcache.demand_miss_rate::.cpu.data     0.003740                       # miss rate for demand accesses
system.cpu.dcache.demand_miss_rate::total     0.003740                       # miss rate for demand accesses
system.cpu.dcache.overall_miss_rate::.cpu.data     0.003741                       # miss rate for overall accesses
system.cpu.dcache.overall_miss_rate::total     0.003741                       # miss rate for overall accesses
system.cpu.dcache.demand_avg_miss_latency::.cpu.data 62996.970374                       # average overall miss latency
system.cpu.dcache.demand_avg_miss_latency::total 62996.970374                       # average overall miss latency
system.cpu.dcache.overall_avg_miss_latency::.cpu.data 62978.011818                       # average overall miss latency
system.cpu.dcache.overall_avg_miss_latency::total 62978.011818                       # average overall miss latency
system.cpu.dcache.blocked_cycles::no_mshrs            0                       # number of cycles access was blocked
system.cpu.dcache.blocked_cycles::no_targets       201582                       # number of cycles access was blocked
system.cpu.dcache.blocked::no_mshrs                 0                       # number of cycles access was blocked
system.cpu.dcache.blocked::no_targets            2336                       # number of cycles access was blocked
system.cpu.dcache.avg_blocked_cycles::no_mshrs          nan                       # average number of cycles each access was blocked
system.cpu.dcache.avg_blocked_cycles::no_targets    86.293664                       # average number of cycles each access was blocked
system.cpu.dcache.writebacks::.writebacks        59638                       # number of writebacks
system.cpu.dcache.writebacks::total             59638                       # number of writebacks
system.cpu.dcache.demand_mshr_hits::.cpu.data        76086                       # number of demand (read+write) MSHR hits
system.cpu.dcache.demand_mshr_hits::total        76086                       # number of demand (read+write) MSHR hits
system.cpu.dcache.overall_mshr_hits::.cpu.data        76086                       # number of overall MSHR hits
system.cpu.dcache.overall_mshr_hits::total        76086                       # number of overall MSHR hits
system.cpu.dcache.demand_mshr_misses::.cpu.data        60111                       # number of demand (read+write) MSHR misses
system.cpu.dcache.demand_mshr_misses::total        60111                       # number of demand (read+write) MSHR misses
system.cpu.dcache.overall_mshr_misses::.cpu.data        60148                       # number of overall MSHR misses
system.cpu.dcache.overall_mshr_misses::total        60148                       # number of overall MSHR misses
system.cpu.dcache.demand_mshr_miss_latency::.cpu.data   3859364000                       # number of demand (read+write) MSHR miss cycles
system.cpu.dcache.demand_mshr_miss_latency::total   3859364000                       # number of demand (read+write) MSHR miss cycles
system.cpu.dcache.overall_mshr_miss_latency::.cpu.data   3861671500                       # number of overall MSHR miss cycles
system.cpu.dcache.overall_mshr_miss_latency::total   3861671500                       # number of overall MSHR miss cycles
system.cpu.dcache.demand_mshr_miss_rate::.cpu.data     0.001651                       # mshr miss rate for demand accesses
system.cpu.dcache.demand_mshr_miss_rate::total     0.001651                       # mshr miss rate for demand accesses
system.cpu.dcache.overall_mshr_miss_rate::.cpu.data     0.001652                       # mshr miss rate for overall accesses
system.cpu.dcache.overall_mshr_miss_rate::total     0.001652                       # mshr miss rate for overall accesses
system.cpu.dcache.demand_avg_mshr_miss_latency::.cpu.data 64203.956015                       # average overall mshr miss latency
system.cpu.dcache.demand_avg_mshr_miss_latency::total 64203.956015                       # average overall mshr miss latency
system.cpu.dcache.overall_avg_mshr_miss_latency::.cpu.data 64202.824699                       # average overall mshr miss latency
system.cpu.dcache.overall_avg_mshr_miss_latency::total 64202.824699                       # average overall mshr miss latency
system.cpu.dcache.replacements                  59638                       # number of replacements
system.cpu.dcache.ReadReq_hits::.cpu.data     21657196                       # number of ReadReq hits
system.cpu.dcache.ReadReq_hits::total        21657196                       # number of ReadReq hits
system.cpu.dcache.ReadReq_misses::.cpu.data        41560                       # number of ReadReq misses
system.cpu.dcache.ReadReq_misses::total         41560                       # number of ReadReq misses
system.cpu.dcache.ReadReq_miss_latency::.cpu.data   2709633500                       # number of ReadReq miss cycles
system.cpu.dcache.ReadReq_miss_latency::total   2709633500                       # number of ReadReq miss cycles
system.cpu.dcache.ReadReq_accesses::.cpu.data     21698756                       # number of ReadReq accesses(hits+misses)
system.cpu.dcache.ReadReq_accesses::total     21698756                       # number of ReadReq accesses(hits+misses)
system.cpu.dcache.ReadReq_miss_rate::.cpu.data     0.001915                       # miss rate for ReadReq accesses
system.cpu.dcache.ReadReq_miss_rate::total     0.001915                       # miss rate for ReadReq accesses
system.cpu.dcache.ReadReq_avg_miss_latency::.cpu.data 65198.111165                       # average ReadReq miss latency
system.cpu.dcache.ReadReq_avg_miss_latency::total 65198.111165                       # average ReadReq miss latency
system.cpu.dcache.ReadReq_mshr_hits::.cpu.data        17484                       # number of ReadReq MSHR hits
system.cpu.dcache.ReadReq_mshr_hits::total        17484                       # number of ReadReq MSHR hits
system.cpu.dcache.ReadReq_mshr_misses::.cpu.data        24076                       # number of ReadReq MSHR misses
system.cpu.dcache.ReadReq_mshr_misses::total        24076                       # number of ReadReq MSHR misses
system.cpu.dcache.ReadReq_mshr_miss_latency::.cpu.data   1618995500                       # number of ReadReq MSHR miss cycles
system.cpu.dcache.ReadReq_mshr_miss_latency::total   1618995500                       # number of ReadReq MSHR miss cycles
system.cpu.dcache.ReadReq_mshr_miss_rate::.cpu.data     0.001110                       # mshr miss rate for ReadReq accesses
system.cpu.dcache.ReadReq_mshr_miss_rate::total     0.001110                       # mshr miss rate for ReadReq accesses
system.cpu.dcache.ReadReq_avg_mshr_miss_latency::.cpu.data 67245.202691                       # average ReadReq mshr miss latency
system.cpu.dcache.ReadReq_avg_mshr_miss_latency::total 67245.202691                       # average ReadReq mshr miss latency
system.cpu.dcache.WriteReq_hits::.cpu.data     14620415                       # number of WriteReq hits
system.cpu.dcache.WriteReq_hits::total       14620415                       # number of WriteReq hits
system.cpu.dcache.WriteReq_misses::.cpu.data        94637                       # number of WriteReq misses
system.cpu.dcache.WriteReq_misses::total        94637                       # number of WriteReq misses
system.cpu.dcache.WriteReq_miss_latency::.cpu.data   5870364874                       # number of WriteReq miss cycles
system.cpu.dcache.WriteReq_miss_latency::total   5870364874                       # number of WriteReq miss cycles
system.cpu.dcache.WriteReq_accesses::.cpu.data     14715052                       # number of WriteReq accesses(hits+misses)
system.cpu.dcache.WriteReq_accesses::total     14715052                       # number of WriteReq accesses(hits+misses)
system.cpu.dcache.WriteReq_miss_rate::.cpu.data     0.006431                       # miss rate for WriteReq accesses
system.cpu.dcache.WriteReq_miss_rate::total     0.006431                       # miss rate for WriteReq accesses
system.cpu.dcache.WriteReq_avg_miss_latency::.cpu.data 62030.335640                       # average WriteReq miss latency
system.cpu.dcache.WriteReq_avg_miss_latency::total 62030.335640                       # average WriteReq miss latency
system.cpu.dcache.WriteReq_mshr_hits::.cpu.data        58602                       # number of WriteReq MSHR hits
system.cpu.dcache.WriteReq_mshr_hits::total        58602                       # number of WriteReq MSHR hits
system.cpu.dcache.WriteReq_mshr_misses::.cpu.data        36035                       # number of WriteReq MSHR misses
system.cpu.dcache.WriteReq_mshr_misses::total        36035                       # number of WriteReq MSHR misses
system.cpu.dcache.WriteReq_mshr_miss_latency::.cpu.data   2240368500                       # number of WriteReq MSHR miss cycles
system.cpu.dcache.WriteReq_mshr_miss_latency::total   2240368500                       # number of WriteReq MSHR miss cycles
system.cpu.dcache.WriteReq_mshr_miss_rate::.cpu.data     0.002449                       # mshr miss rate for WriteReq accesses
system.cpu.dcache.WriteReq_mshr_miss_rate::total     0.002449                       # mshr miss rate for WriteReq accesses
system.cpu.dcache.WriteReq_avg_mshr_miss_latency::.cpu.data 62172.013320                       # average WriteReq mshr miss latency
system.cpu.dcache.WriteReq_avg_mshr_miss_latency::total 62172.013320                       # average WriteReq mshr miss latency
system.cpu.dcache.SoftPFReq_hits::.cpu.data         3371                       # number of SoftPFReq hits
system.cpu.dcache.SoftPFReq_hits::total          3371                       # number of SoftPFReq hits
system.cpu.dcache.SoftPFReq_misses::.cpu.data           41                       # number of SoftPFReq misses
system.cpu.dcache.SoftPFReq_misses::total           41                       # number of SoftPFReq misses
system.cpu.dcache.SoftPFReq_accesses::.cpu.data         3412                       # number of SoftPFReq accesses(hits+misses)
system.cpu.dcache.SoftPFReq_accesses::total         3412                       # number of SoftPFReq accesses(hits+misses)
system.cpu.dcache.SoftPFReq_miss_rate::.cpu.data     0.012016                       # miss rate for SoftPFReq accesses
system.cpu.dcache.SoftPFReq_miss_rate::total     0.012016                       # miss rate for SoftPFReq accesses
system.cpu.dcache.SoftPFReq_mshr_misses::.cpu.data           37                       # number of SoftPFReq MSHR misses
system.cpu.dcache.SoftPFReq_mshr_misses::total           37                       # number of SoftPFReq MSHR misses
system.cpu.dcache.SoftPFReq_mshr_miss_latency::.cpu.data      2307500                       # number of SoftPFReq MSHR miss cycles
system.cpu.dcache.SoftPFReq_mshr_miss_latency::total      2307500                       # number of SoftPFReq MSHR miss cycles
system.cpu.dcache.SoftPFReq_mshr_miss_rate::.cpu.data     0.010844                       # mshr miss rate for SoftPFReq accesses
system.cpu.dcache.SoftPFReq_mshr_miss_rate::total     0.010844                       # mshr miss rate for SoftPFReq accesses
system.cpu.dcache.SoftPFReq_avg_mshr_miss_latency::.cpu.data 62364.864865                       # average SoftPFReq mshr miss latency
system.cpu.dcache.SoftPFReq_avg_mshr_miss_latency::total 62364.864865                       # average SoftPFReq mshr miss latency
system.cpu.dcache.LoadLockedReq_hits::.cpu.data        90371                       # number of LoadLockedReq hits
system.cpu.dcache.LoadLockedReq_hits::total        90371                       # number of LoadLockedReq hits
system.cpu.dcache.LoadLockedReq_misses::.cpu.data            4                       # number of LoadLockedReq misses
system.cpu.dcache.LoadLockedReq_misses::total            4                       # number of LoadLockedReq misses
system.cpu.dcache.LoadLockedReq_miss_latency::.cpu.data       252125                       # number of LoadLockedReq miss cycles
system.cpu.dcache.LoadLockedReq_miss_latency::total       252125                       # number of LoadLockedReq miss cycles
system.cpu.dcache.LoadLockedReq_accesses::.cpu.data        90375                       # number of LoadLockedReq accesses(hits+misses)
system.cpu.dcache.LoadLockedReq_accesses::total        90375                       # number of LoadLockedReq accesses(hits+misses)
system.cpu.dcache.LoadLockedReq_miss_rate::.cpu.data     0.000044                       # miss rate for LoadLockedReq accesses
system.cpu.dcache.LoadLockedReq_miss_rate::total     0.000044                       # miss rate for LoadLockedReq accesses
system.cpu.dcache.LoadLockedReq_avg_miss_latency::.cpu.data 63031.250000                       # average LoadLockedReq miss latency
system.cpu.dcache.LoadLockedReq_avg_miss_latency::total 63031.250000                       # average LoadLockedReq miss latency
system.cpu.dcache.LoadLockedReq_mshr_hits::.cpu.data            2                       # number of LoadLockedReq MSHR hits
system.cpu.dcache.LoadLockedReq_mshr_hits::total            2                       # number of LoadLockedReq MSHR hits
system.cpu.dcache.LoadLockedReq_mshr_misses::.cpu.data            2                       # number of LoadLockedReq MSHR misses
system.cpu.dcache.LoadLockedReq_mshr_misses::total            2                       # number of LoadLockedReq MSHR misses
system.cpu.dcache.LoadLockedReq_mshr_miss_latency::.cpu.data       114625                       # number of LoadLockedReq MSHR miss cycles
system.cpu.dcache.LoadLockedReq_mshr_miss_latency::total       114625                       # number of LoadLockedReq MSHR miss cycles
system.cpu.dcache.LoadLockedReq_mshr_miss_rate::.cpu.data     0.000022                       # mshr miss rate for LoadLockedReq accesses
system.cpu.dcache.LoadLockedReq_mshr_miss_rate::total     0.000022                       # mshr miss rate for LoadLockedReq accesses
system.cpu.dcache.LoadLockedReq_avg_mshr_miss_latency::.cpu.data 57312.500000                       # average LoadLockedReq mshr miss latency
system.cpu.dcache.LoadLockedReq_avg_mshr_miss_latency::total 57312.500000                       # average LoadLockedReq mshr miss latency
system.cpu.dcache.StoreCondReq_hits::.cpu.data        90057                       # number of StoreCondReq hits
system.cpu.dcache.StoreCondReq_hits::total        90057                       # number of StoreCondReq hits
system.cpu.dcache.StoreCondReq_accesses::.cpu.data        90057                       # number of StoreCondReq accesses(hits+misses)
system.cpu.dcache.StoreCondReq_accesses::total        90057                       # number of StoreCondReq accesses(hits+misses)
system.cpu.dcache.power_state.pwrStateResidencyTicks::UNDEFINED  44856211250                       # Cumulative time (in ticks) in various power states
system.cpu.dcache.tags.tagsinuse           511.285804                       # Cycle average of tags in use
system.cpu.dcache.tags.total_refs            36521560                       # Total number of references to valid blocks.
system.cpu.dcache.tags.sampled_refs             60150                       # Sample count of references to valid blocks.
system.cpu.dcache.tags.avg_refs            607.174730                       # Average number of references to valid blocks.
system.cpu.dcache.tags.warmup_cycle            148000                       # Cycle when the warmup percentage was hit.
system.cpu.dcache.tags.occ_blocks::.cpu.data   511.285804                       # Average occupied blocks per requestor
system.cpu.dcache.tags.occ_percent::.cpu.data     0.998605                       # Average percentage of cache occupancy
system.cpu.dcache.tags.occ_percent::total     0.998605                       # Average percentage of cache occupancy
system.cpu.dcache.tags.occ_task_id_blocks::1024          512                       # Occupied blocks per task id
system.cpu.dcache.tags.age_task_id_blocks_1024::0           16                       # Occupied blocks per task id
system.cpu.dcache.tags.age_task_id_blocks_1024::1          130                       # Occupied blocks per task id
system.cpu.dcache.tags.age_task_id_blocks_1024::2          325                       # Occupied blocks per task id
system.cpu.dcache.tags.age_task_id_blocks_1024::3            7                       # Occupied blocks per task id
system.cpu.dcache.tags.age_task_id_blocks_1024::4           34                       # Occupied blocks per task id
system.cpu.dcache.tags.occ_task_id_percent::1024            1                       # Percentage of cache occupancy per task id
system.cpu.dcache.tags.tag_accesses         146450758                       # Number of tag accesses
system.cpu.dcache.tags.data_accesses        146450758                       # Number of data accesses
system.cpu.dcache.tags.power_state.pwrStateResidencyTicks::UNDEFINED  44856211250                       # Cumulative time (in ticks) in various power states
system.cpu.decode.idleCycles                  4838459                       # Number of cycles decode is idle
system.cpu.decode.blockedCycles              11092479                       # Number of cycles decode is blocked
system.cpu.decode.runCycles                  52098326                       # Number of cycles decode is running
system.cpu.decode.unblockCycles               2735743                       # Number of cycles decode is unblocking
system.cpu.decode.squashCycles                 986199                       # Number of cycles decode is squashing
system.cpu.decode.branchResolved             11165585                       # Number of times decode resolved a  branch
system.cpu.decode.branchMispred                148897                       # Number of times decode detected a branch misprediction
system.cpu.decode.decodedInsts              134882688                       # Number of instructions handled by decode
system.cpu.decode.squashedInsts               5377450                       # Number of squashed instructions handled by decode
system.cpu.dtb.instHits                             0                       # ITB inst hits
system.cpu.dtb.instMisses                           0                       # ITB inst misses
system.cpu.dtb.readHits                             0                       # DTB read hits
system.cpu.dtb.readMisses                           0                       # DTB read misses
system.cpu.dtb.writeHits                            0                       # DTB write hits
system.cpu.dtb.writeMisses                          0                       # DTB write misses
system.cpu.dtb.inserts                              0                       # Number of times an entry is inserted into the TLB
system.cpu.dtb.flushTlb                             0                       # Number of times complete TLB was flushed
system.cpu.dtb.flushTlbMva                          0                       # Number of times TLB was flushed by MVA
system.cpu.dtb.flushTlbMvaAsid                      0                       # Number of times TLB was flushed by MVA & ASID
system.cpu.dtb.flushTlbAsid                         0                       # Number of times TLB was flushed by ASID
system.cpu.dtb.flushedEntries                       0                       # Number of entries that have been flushed from TLB
system.cpu.dtb.alignFaults                          0                       # Number of TLB faults due to alignment restrictions
system.cpu.dtb.prefetchFaults                       0                       # Number of TLB faults due to prefetch
system.cpu.dtb.domainFaults                         0                       # Number of TLB faults due to domain restrictions
system.cpu.dtb.permsFaults                          0                       # Number of TLB faults due to permissions restrictions
system.cpu.dtb.readAccesses                         0                       # DTB read accesses
system.cpu.dtb.writeAccesses                        0                       # DTB write accesses
system.cpu.dtb.instAccesses                         0                       # ITB inst accesses
system.cpu.dtb.hits                                 0                       # Total TLB (inst and data) hits
system.cpu.dtb.misses                               0                       # Total TLB (inst and data) misses
system.cpu.dtb.accesses                             0                       # Total TLB (inst and data) accesses
system.cpu.dtb.stage2_mmu.stage2_tlb.instHits            0                       # ITB inst hits
system.cpu.dtb.stage2_mmu.stage2_tlb.instMisses            0                       # ITB inst misses
system.cpu.dtb.stage2_mmu.stage2_tlb.readHits            0                       # DTB read hits
system.cpu.dtb.stage2_mmu.stage2_tlb.readMisses            0                       # DTB read misses
system.cpu.dtb.stage2_mmu.stage2_tlb.writeHits            0                       # DTB write hits
system.cpu.dtb.stage2_mmu.stage2_tlb.writeMisses            0                       # DTB write misses
system.cpu.dtb.stage2_mmu.stage2_tlb.inserts            0                       # Number of times an entry is inserted into the TLB
system.cpu.dtb.stage2_mmu.stage2_tlb.flushTlb            0                       # Number of times complete TLB was flushed
system.cpu.dtb.stage2_mmu.stage2_tlb.flushTlbMva            0                       # Number of times TLB was flushed by MVA
system.cpu.dtb.stage2_mmu.stage2_tlb.flushTlbMvaAsid            0                       # Number of times TLB was flushed by MVA & ASID
system.cpu.dtb.stage2_mmu.stage2_tlb.flushTlbAsid            0                       # Number of times TLB was flushed by ASID
system.cpu.dtb.stage2_mmu.stage2_tlb.flushedEntries            0                       # Number of entries that have been flushed from TLB
system.cpu.dtb.stage2_mmu.stage2_tlb.alignFaults            0                       # Number of TLB faults due to alignment restrictions
system.cpu.dtb.stage2_mmu.stage2_tlb.prefetchFaults            0                       # Number of TLB faults due to prefetch
system.cpu.dtb.stage2_mmu.stage2_tlb.domainFaults            0                       # Number of TLB faults due to domain restrictions
system.cpu.dtb.stage2_mmu.stage2_tlb.permsFaults            0                       # Number of TLB faults due to permissions restrictions
system.cpu.dtb.stage2_mmu.stage2_tlb.readAccesses            0                       # DTB read accesses
system.cpu.dtb.stage2_mmu.stage2_tlb.writeAccesses            0                       # DTB write accesses
system.cpu.dtb.stage2_mmu.stage2_tlb.instAccesses            0                       # ITB inst accesses
system.cpu.dtb.stage2_mmu.stage2_tlb.hits            0                       # Total TLB (inst and data) hits
system.cpu.dtb.stage2_mmu.stage2_tlb.misses            0                       # Total TLB (inst and data) misses
system.cpu.dtb.stage2_mmu.stage2_tlb.accesses            0                       # Total TLB (inst and data) accesses
system.cpu.dtb.stage2_mmu.stage2_tlb.walker.walks            0                       # Table walker walks requested
system.cpu.dtb.stage2_mmu.stage2_tlb.walker.requestOrigin_Requested::Data            0                       # Table walker requests started/completed, data/inst
system.cpu.dtb.stage2_mmu.stage2_tlb.walker.requestOrigin_Requested::Inst            0                       # Table walker requests started/completed, data/inst
system.cpu.dtb.stage2_mmu.stage2_tlb.walker.requestOrigin_Requested::total            0                       # Table walker requests started/completed, data/inst
system.cpu.dtb.stage2_mmu.stage2_tlb.walker.requestOrigin_Completed::Data            0                       # Table walker requests started/completed, data/inst
system.cpu.dtb.stage2_mmu.stage2_tlb.walker.requestOrigin_Completed::Inst            0                       # Table walker requests started/completed, data/inst
system.cpu.dtb.stage2_mmu.stage2_tlb.walker.requestOrigin_Completed::total            0                       # Table walker requests started/completed, data/inst
system.cpu.dtb.stage2_mmu.stage2_tlb.walker.requestOrigin::total            0                       # Table walker requests started/completed, data/inst
system.cpu.dtb.stage2_mmu.stage2_tlb.walker.power_state.pwrStateResidencyTicks::UNDEFINED  44856211250                       # Cumulative time (in ticks) in various power states
system.cpu.dtb.walker.walks                         0                       # Table walker walks requested
system.cpu.dtb.walker.requestOrigin_Requested::Data            0                       # Table walker requests started/completed, data/inst
system.cpu.dtb.walker.requestOrigin_Requested::Inst            0                       # Table walker requests started/completed, data/inst
system.cpu.dtb.walker.requestOrigin_Requested::total            0                       # Table walker requests started/completed, data/inst
system.cpu.dtb.walker.requestOrigin_Completed::Data            0                       # Table walker requests started/completed, data/inst
system.cpu.dtb.walker.requestOrigin_Completed::Inst            0                       # Table walker requests started/completed, data/inst
system.cpu.dtb.walker.requestOrigin_Completed::total            0                       # Table walker requests started/completed, data/inst
system.cpu.dtb.walker.requestOrigin::total            0                       # Table walker requests started/completed, data/inst
system.cpu.dtb.walker.power_state.pwrStateResidencyTicks::UNDEFINED  44856211250                       # Cumulative time (in ticks) in various power states
system.cpu.dtb_walker_cache.blocked_cycles::no_mshrs            0                       # number of cycles access was blocked
system.cpu.dtb_walker_cache.blocked_cycles::no_targets            0                       # number of cycles access was blocked
system.cpu.dtb_walker_cache.blocked::no_mshrs            0                       # number of cycles access was blocked
system.cpu.dtb_walker_cache.blocked::no_targets            0                       # number of cycles access was blocked
system.cpu.dtb_walker_cache.avg_blocked_cycles::no_mshrs          nan                       # average number of cycles each access was blocked
system.cpu.dtb_walker_cache.avg_blocked_cycles::no_targets          nan                       # average number of cycles each access was blocked
system.cpu.dtb_walker_cache.replacements            0                       # number of replacements
system.cpu.dtb_walker_cache.power_state.pwrStateResidencyTicks::UNDEFINED  44856211250                       # Cumulative time (in ticks) in various power states
system.cpu.dtb_walker_cache.tags.tagsinuse            0                       # Cycle average of tags in use
system.cpu.dtb_walker_cache.tags.total_refs            0                       # Total number of references to valid blocks.
system.cpu.dtb_walker_cache.tags.sampled_refs            0                       # Sample count of references to valid blocks.
system.cpu.dtb_walker_cache.tags.avg_refs          nan                       # Average number of references to valid blocks.
system.cpu.dtb_walker_cache.tags.warmup_cycle            0                       # Cycle when the warmup percentage was hit.
system.cpu.dtb_walker_cache.tags.tag_accesses            0                       # Number of tag accesses
system.cpu.dtb_walker_cache.tags.data_accesses            0                       # Number of data accesses
system.cpu.dtb_walker_cache.tags.power_state.pwrStateResidencyTicks::UNDEFINED  44856211250                       # Cumulative time (in ticks) in various power states
system.cpu.fetch.icacheStallCycles             946146                       # Number of cycles fetch is stalled on an Icache miss
system.cpu.fetch.insts                      133043041                       # Number of instructions fetch has processed
system.cpu.fetch.branches                    28657219                       # Number of branches that fetch encountered
system.cpu.fetch.predictedBranches           14316743                       # Number of branches that fetch has predicted taken
system.cpu.fetch.cycles                      69669443                       # Number of cycles fetch has run and was not squashing or blocked
system.cpu.fetch.squashCycles                 2270110                       # Number of cycles fetch has spent squashing
system.cpu.fetch.miscStallCycles                   80                       # Number of cycles fetch has spent waiting on interrupts,or bad addresses, or out of MSHRs
system.cpu.fetch.pendingTrapStallCycles           206                       # Number of stall cycles due to pending traps
system.cpu.fetch.icacheWaitRetryStallCycles          276                       # Number of stall cycles due to full MSHR
system.cpu.fetch.cacheLines                  33659672                       # Number of cache lines fetched
system.cpu.fetch.icacheSquashes                   253                       # Number of outstanding Icache misses that were squashed
system.cpu.fetch.nisnDist::samples           71751206                       # Number of instructions fetched each cycle (Total)
system.cpu.fetch.nisnDist::mean              2.037914                       # Number of instructions fetched each cycle (Total)
system.cpu.fetch.nisnDist::stdev             1.132519                       # Number of instructions fetched each cycle (Total)
system.cpu.fetch.nisnDist::underflows               0      0.00%      0.00% # Number of instructions fetched each cycle (Total)
system.cpu.fetch.nisnDist::0                 11122711     15.50%     15.50% # Number of instructions fetched each cycle (Total)
system.cpu.fetch.nisnDist::1                 11337274     15.80%     31.30% # Number of instructions fetched each cycle (Total)
system.cpu.fetch.nisnDist::2                 12988130     18.10%     49.40% # Number of instructions fetched each cycle (Total)
system.cpu.fetch.nisnDist::3                 36303091     50.60%    100.00% # Number of instructions fetched each cycle (Total)
system.cpu.fetch.nisnDist::overflows                0      0.00%    100.00% # Number of instructions fetched each cycle (Total)
system.cpu.fetch.nisnDist::min_value                0                       # Number of instructions fetched each cycle (Total)
system.cpu.fetch.nisnDist::max_value                3                       # Number of instructions fetched each cycle (Total)
system.cpu.fetch.nisnDist::total             71751206                       # Number of instructions fetched each cycle (Total)
system.cpu.fetch.branchRate                  0.399293                       # Number of branch fetches per cycle
system.cpu.fetch.rate                        1.853743                       # Number of inst fetches per cycle
system.cpu.icache.demand_hits::.cpu.inst     33659183                       # number of demand (read+write) hits
system.cpu.icache.demand_hits::total         33659183                       # number of demand (read+write) hits
system.cpu.icache.overall_hits::.cpu.inst     33659183                       # number of overall hits
system.cpu.icache.overall_hits::total        33659183                       # number of overall hits
system.cpu.icache.demand_misses::.cpu.inst          488                       # number of demand (read+write) misses
system.cpu.icache.demand_misses::total            488                       # number of demand (read+write) misses
system.cpu.icache.overall_misses::.cpu.inst          488                       # number of overall misses
system.cpu.icache.overall_misses::total           488                       # number of overall misses
system.cpu.icache.demand_miss_latency::.cpu.inst     27131369                       # number of demand (read+write) miss cycles
system.cpu.icache.demand_miss_latency::total     27131369                       # number of demand (read+write) miss cycles
system.cpu.icache.overall_miss_latency::.cpu.inst     27131369                       # number of overall miss cycles
system.cpu.icache.overall_miss_latency::total     27131369                       # number of overall miss cycles
system.cpu.icache.demand_accesses::.cpu.inst     33659671                       # number of demand (read+write) accesses
system.cpu.icache.demand_accesses::total     33659671                       # number of demand (read+write) accesses
system.cpu.icache.overall_accesses::.cpu.inst     33659671                       # number of overall (read+write) accesses
system.cpu.icache.overall_accesses::total     33659671                       # number of overall (read+write) accesses
system.cpu.icache.demand_miss_rate::.cpu.inst     0.000014                       # miss rate for demand accesses
system.cpu.icache.demand_miss_rate::total     0.000014                       # miss rate for demand accesses
system.cpu.icache.overall_miss_rate::.cpu.inst     0.000014                       # miss rate for overall accesses
system.cpu.icache.overall_miss_rate::total     0.000014                       # miss rate for overall accesses
system.cpu.icache.demand_avg_miss_latency::.cpu.inst 55597.067623                       # average overall miss latency
system.cpu.icache.demand_avg_miss_latency::total 55597.067623                       # average overall miss latency
system.cpu.icache.overall_avg_miss_latency::.cpu.inst 55597.067623                       # average overall miss latency
system.cpu.icache.overall_avg_miss_latency::total 55597.067623                       # average overall miss latency
system.cpu.icache.blocked_cycles::no_mshrs         7058                       # number of cycles access was blocked
system.cpu.icache.blocked_cycles::no_targets            0                       # number of cycles access was blocked
system.cpu.icache.blocked::no_mshrs                99                       # number of cycles access was blocked
system.cpu.icache.blocked::no_targets               0                       # number of cycles access was blocked
system.cpu.icache.avg_blocked_cycles::no_mshrs    71.292929                       # average number of cycles each access was blocked
system.cpu.icache.avg_blocked_cycles::no_targets          nan                       # average number of cycles each access was blocked
system.cpu.icache.writebacks::.writebacks           38                       # number of writebacks
system.cpu.icache.writebacks::total                38                       # number of writebacks
system.cpu.icache.demand_mshr_hits::.cpu.inst           88                       # number of demand (read+write) MSHR hits
system.cpu.icache.demand_mshr_hits::total           88                       # number of demand (read+write) MSHR hits
system.cpu.icache.overall_mshr_hits::.cpu.inst           88                       # number of overall MSHR hits
system.cpu.icache.overall_mshr_hits::total           88                       # number of overall MSHR hits
system.cpu.icache.demand_mshr_misses::.cpu.inst          400                       # number of demand (read+write) MSHR misses
system.cpu.icache.demand_mshr_misses::total          400                       # number of demand (read+write) MSHR misses
system.cpu.icache.overall_mshr_misses::.cpu.inst          400                       # number of overall MSHR misses
system.cpu.icache.overall_mshr_misses::total          400                       # number of overall MSHR misses
system.cpu.icache.demand_mshr_miss_latency::.cpu.inst     23262495                       # number of demand (read+write) MSHR miss cycles
system.cpu.icache.demand_mshr_miss_latency::total     23262495                       # number of demand (read+write) MSHR miss cycles
system.cpu.icache.overall_mshr_miss_latency::.cpu.inst     23262495                       # number of overall MSHR miss cycles
system.cpu.icache.overall_mshr_miss_latency::total     23262495                       # number of overall MSHR miss cycles
system.cpu.icache.demand_mshr_miss_rate::.cpu.inst     0.000012                       # mshr miss rate for demand accesses
system.cpu.icache.demand_mshr_miss_rate::total     0.000012                       # mshr miss rate for demand accesses
system.cpu.icache.overall_mshr_miss_rate::.cpu.inst     0.000012                       # mshr miss rate for overall accesses
system.cpu.icache.overall_mshr_miss_rate::total     0.000012                       # mshr miss rate for overall accesses
system.cpu.icache.demand_avg_mshr_miss_latency::.cpu.inst 58156.237500                       # average overall mshr miss latency
system.cpu.icache.demand_avg_mshr_miss_latency::total 58156.237500                       # average overall mshr miss latency
system.cpu.icache.overall_avg_mshr_miss_latency::.cpu.inst 58156.237500                       # average overall mshr miss latency
system.cpu.icache.overall_avg_mshr_miss_latency::total 58156.237500                       # average overall mshr miss latency
system.cpu.icache.replacements                     38                       # number of replacements
system.cpu.icache.ReadReq_hits::.cpu.inst     33659183                       # number of ReadReq hits
system.cpu.icache.ReadReq_hits::total        33659183                       # number of ReadReq hits
system.cpu.icache.ReadReq_misses::.cpu.inst          488                       # number of ReadReq misses
system.cpu.icache.ReadReq_misses::total           488                       # number of ReadReq misses
system.cpu.icache.ReadReq_miss_latency::.cpu.inst     27131369                       # number of ReadReq miss cycles
system.cpu.icache.ReadReq_miss_latency::total     27131369                       # number of ReadReq miss cycles
system.cpu.icache.ReadReq_accesses::.cpu.inst     33659671                       # number of ReadReq accesses(hits+misses)
system.cpu.icache.ReadReq_accesses::total     33659671                       # number of ReadReq accesses(hits+misses)
system.cpu.icache.ReadReq_miss_rate::.cpu.inst     0.000014                       # miss rate for ReadReq accesses
system.cpu.icache.ReadReq_miss_rate::total     0.000014                       # miss rate for ReadReq accesses
system.cpu.icache.ReadReq_avg_miss_latency::.cpu.inst 55597.067623                       # average ReadReq miss latency
system.cpu.icache.ReadReq_avg_miss_latency::total 55597.067623                       # average ReadReq miss latency
system.cpu.icache.ReadReq_mshr_hits::.cpu.inst           88                       # number of ReadReq MSHR hits
system.cpu.icache.ReadReq_mshr_hits::total           88                       # number of ReadReq MSHR hits
system.cpu.icache.ReadReq_mshr_misses::.cpu.inst          400                       # number of ReadReq MSHR misses
system.cpu.icache.ReadReq_mshr_misses::total          400                       # number of ReadReq MSHR misses
system.cpu.icache.ReadReq_mshr_miss_latency::.cpu.inst     23262495                       # number of ReadReq MSHR miss cycles
system.cpu.icache.ReadReq_mshr_miss_latency::total     23262495                       # number of ReadReq MSHR miss cycles
system.cpu.icache.ReadReq_mshr_miss_rate::.cpu.inst     0.000012                       # mshr miss rate for ReadReq accesses
system.cpu.icache.ReadReq_mshr_miss_rate::total     0.000012                       # mshr miss rate for ReadReq accesses
system.cpu.icache.ReadReq_avg_mshr_miss_latency::.cpu.inst 58156.237500                       # average ReadReq mshr miss latency
system.cpu.icache.ReadReq_avg_mshr_miss_latency::total 58156.237500                       # average ReadReq mshr miss latency
system.cpu.icache.power_state.pwrStateResidencyTicks::UNDEFINED  44856211250                       # Cumulative time (in ticks) in various power states
system.cpu.icache.tags.tagsinuse           361.407502                       # Cycle average of tags in use
system.cpu.icache.tags.total_refs            33659583                       # Total number of references to valid blocks.
system.cpu.icache.tags.sampled_refs               400                       # Sample count of references to valid blocks.
system.cpu.icache.tags.avg_refs          84148.957500                       # Average number of references to valid blocks.
system.cpu.icache.tags.warmup_cycle             77000                       # Cycle when the warmup percentage was hit.
system.cpu.icache.tags.occ_blocks::.cpu.inst   361.407502                       # Average occupied blocks per requestor
system.cpu.icache.tags.occ_percent::.cpu.inst     0.705874                       # Average percentage of cache occupancy
system.cpu.icache.tags.occ_percent::total     0.705874                       # Average percentage of cache occupancy
system.cpu.icache.tags.occ_task_id_blocks::1024          362                       # Occupied blocks per task id
system.cpu.icache.tags.age_task_id_blocks_1024::4          362                       # Occupied blocks per task id
system.cpu.icache.tags.occ_task_id_percent::1024     0.707031                       # Percentage of cache occupancy per task id
system.cpu.icache.tags.tag_accesses         134639084                       # Number of tag accesses
system.cpu.icache.tags.data_accesses        134639084                       # Number of data accesses
system.cpu.icache.tags.power_state.pwrStateResidencyTicks::UNDEFINED  44856211250                       # Cumulative time (in ticks) in various power states
system.cpu.itb.instHits                             0                       # ITB inst hits
system.cpu.itb.instMisses                           0                       # ITB inst misses
[...]
system.mem_ctrls.requestorReadTotalLat::.cpu.data   1935178750                       # Per-requestor read total memory access latency
system.mem_ctrls.requestorWriteTotalLat::.writebacks 1066291422375                       # Per-requestor write total memory access latency
system.mem_ctrls.requestorReadAvgLat::.cpu.inst     26862.19                       # Per-requestor read average memory access latency
system.mem_ctrls.requestorReadAvgLat::.cpu.data     32172.55                       # Per-requestor read average memory access latency
system.mem_ctrls.requestorWriteAvgLat::.writebacks  17893197.45                       # Per-requestor write average memory access latency
system.mem_ctrls.dram.bytes_read::.cpu.inst        25600                       # Number of bytes read from this memory
system.mem_ctrls.dram.bytes_read::.cpu.data      3849600                       # Number of bytes read from this memory
system.mem_ctrls.dram.bytes_read::total       3875200                       # Number of bytes read from this memory
system.mem_ctrls.dram.bytes_inst_read::.cpu.inst        25600                       # Number of instructions bytes read from this memory
system.mem_ctrls.dram.bytes_inst_read::total        25600                       # Number of instructions bytes read from this memory
system.mem_ctrls.dram.bytes_written::.writebacks      3367360                       # Number of bytes written to this memory
system.mem_ctrls.dram.bytes_written::total      3367360                       # Number of bytes written to this memory
system.mem_ctrls.dram.num_reads::.cpu.inst          400                       # Number of read requests responded to by this memory
system.mem_ctrls.dram.num_reads::.cpu.data        60150                       # Number of read requests responded to by this memory
system.mem_ctrls.dram.num_reads::total          60550                       # Number of read requests responded to by this memory
system.mem_ctrls.dram.num_writes::.writebacks        52615                       # Number of write requests responded to by this memory
system.mem_ctrls.dram.num_writes::total         52615                       # Number of write requests responded to by this memory
system.mem_ctrls.dram.bw_read::.cpu.inst       570712                       # Total read bandwidth from this memory (bytes/s)
system.mem_ctrls.dram.bw_read::.cpu.data     85820891                       # Total read bandwidth from this memory (bytes/s)
system.mem_ctrls.dram.bw_read::total         86391603                       # Total read bandwidth from this memory (bytes/s)
system.mem_ctrls.dram.bw_inst_read::.cpu.inst       570712                       # Instruction read bandwidth from this memory (bytes/s)
system.mem_ctrls.dram.bw_inst_read::total       570712                       # Instruction read bandwidth from this memory (bytes/s)
system.mem_ctrls.dram.bw_write::.writebacks     75070094                       # Write bandwidth from this memory (bytes/s)
system.mem_ctrls.dram.bw_write::total        75070094                       # Write bandwidth from this memory (bytes/s)
system.mem_ctrls.dram.bw_total::.writebacks     75070094                       # Total bandwidth to/from this memory (bytes/s)
system.mem_ctrls.dram.bw_total::.cpu.inst       570712                       # Total bandwidth to/from this memory (bytes/s)
system.mem_ctrls.dram.bw_total::.cpu.data     85820891                       # Total bandwidth to/from this memory (bytes/s)
system.mem_ctrls.dram.bw_total::total       161461697                       # Total bandwidth to/from this memory (bytes/s)
system.mem_ctrls.dram.readBursts                59619                       # Number of DRAM read bursts
system.mem_ctrls.dram.writeBursts               59560                       # Number of DRAM write bursts
system.mem_ctrls.dram.perBankRdBursts::0         3273                       # Per bank write bursts
system.mem_ctrls.dram.perBankRdBursts::1         3353                       # Per bank write bursts
system.mem_ctrls.dram.perBankRdBursts::2         3305                       # Per bank write bursts
system.mem_ctrls.dram.perBankRdBursts::3         3451                       # Per bank write bursts
system.mem_ctrls.dram.perBankRdBursts::4         6655                       # Per bank write bursts
system.mem_ctrls.dram.perBankRdBursts::5         6450                       # Per bank write bursts
system.mem_ctrls.dram.perBankRdBursts::6         3327                       # Per bank write bursts
system.mem_ctrls.dram.perBankRdBursts::7         3325                       # Per bank write bursts
system.mem_ctrls.dram.perBankRdBursts::8         3437                       # Per bank write bursts
system.mem_ctrls.dram.perBankRdBursts::9         3295                       # Per bank write bursts
system.mem_ctrls.dram.perBankRdBursts::10         3368                       # Per bank write bursts
system.mem_ctrls.dram.perBankRdBursts::11         3424                       # Per bank write bursts
system.mem_ctrls.dram.perBankRdBursts::12         3152                       # Per bank write bursts
system.mem_ctrls.dram.perBankRdBursts::13         3356                       # Per bank write bursts
system.mem_ctrls.dram.perBankRdBursts::14         3169                       # Per bank write bursts
system.mem_ctrls.dram.perBankRdBursts::15         3279                       # Per bank write bursts
system.mem_ctrls.dram.perBankWrBursts::0         3273                       # Per bank write bursts
system.mem_ctrls.dram.perBankWrBursts::1         3374                       # Per bank write bursts
system.mem_ctrls.dram.perBankWrBursts::2         3267                       # Per bank write bursts
system.mem_ctrls.dram.perBankWrBursts::3         3464                       # Per bank write bursts
system.mem_ctrls.dram.perBankWrBursts::4         6663                       # Per bank write bursts
system.mem_ctrls.dram.perBankWrBursts::5         6413                       # Per bank write bursts
system.mem_ctrls.dram.perBankWrBursts::6         3242                       # Per bank write bursts
system.mem_ctrls.dram.perBankWrBursts::7         3354                       # Per bank write bursts
system.mem_ctrls.dram.perBankWrBursts::8         3468                       # Per bank write bursts
system.mem_ctrls.dram.perBankWrBursts::9         3250                       # Per bank write bursts
system.mem_ctrls.dram.perBankWrBursts::10         3358                       # Per bank write bursts
system.mem_ctrls.dram.perBankWrBursts::11         3433                       # Per bank write bursts
system.mem_ctrls.dram.perBankWrBursts::12         3163                       # Per bank write bursts
system.mem_ctrls.dram.perBankWrBursts::13         3370                       # Per bank write bursts
system.mem_ctrls.dram.perBankWrBursts::14         3183                       # Per bank write bursts
system.mem_ctrls.dram.perBankWrBursts::15         3285                       # Per bank write bursts
system.mem_ctrls.dram.totQLat               828067375                       # Total ticks spent queuing
system.mem_ctrls.dram.totBusLat             298095000                       # Total ticks spent in databus transfers
system.mem_ctrls.dram.totMemAccLat         1945923625                       # Total ticks spent from burst creation until serviced by the DRAM
system.mem_ctrls.dram.avgQLat                13889.32                       # Average queueing delay per DRAM burst
system.mem_ctrls.dram.avgBusLat               5000.00                       # Average bus latency per DRAM burst
system.mem_ctrls.dram.avgMemAccLat           32639.32                       # Average memory access latency per DRAM burst
system.mem_ctrls.dram.readRowHits               33332                       # Number of row buffer hits during reads
system.mem_ctrls.dram.writeRowHits              40297                       # Number of row buffer hits during writes
system.mem_ctrls.dram.readRowHitRate            55.91                       # Row buffer hit rate for reads
system.mem_ctrls.dram.writeRowHitRate           67.66                       # Row buffer hit rate for writes
system.mem_ctrls.dram.bytesPerActivate::samples        45543                       # Bytes accessed per row activation
system.mem_ctrls.dram.bytesPerActivate::mean   167.462662                       # Bytes accessed per row activation
system.mem_ctrls.dram.bytesPerActivate::gmean   110.466624                       # Bytes accessed per row activation
system.mem_ctrls.dram.bytesPerActivate::stdev   207.386201                       # Bytes accessed per row activation
system.mem_ctrls.dram.bytesPerActivate::0-127        27693     60.81%     60.81% # Bytes accessed per row activation
system.mem_ctrls.dram.bytesPerActivate::128-255         8177     17.95%     78.76% # Bytes accessed per row activation
system.mem_ctrls.dram.bytesPerActivate::256-383         4813     10.57%     89.33% # Bytes accessed per row activation
system.mem_ctrls.dram.bytesPerActivate::384-511         1281      2.81%     92.14% # Bytes accessed per row activation
system.mem_ctrls.dram.bytesPerActivate::512-639         1023      2.25%     94.39% # Bytes accessed per row activation
system.mem_ctrls.dram.bytesPerActivate::640-767          517      1.14%     95.52% # Bytes accessed per row activation
system.mem_ctrls.dram.bytesPerActivate::768-895          529      1.16%     96.68% # Bytes accessed per row activation
system.mem_ctrls.dram.bytesPerActivate::896-1023          416      0.91%     97.60% # Bytes accessed per row activation
system.mem_ctrls.dram.bytesPerActivate::1024-1151         1094      2.40%    100.00% # Bytes accessed per row activation
system.mem_ctrls.dram.bytesPerActivate::total        45543                       # Bytes accessed per row activation
system.mem_ctrls.dram.bytesRead               3815616                       # Total number of bytes read from DRAM
system.mem_ctrls.dram.bytesWritten            3811840                       # Total number of bytes written to DRAM
system.mem_ctrls.dram.avgRdBW               85.063270                       # Average DRAM read bandwidth in MiBytes/s
system.mem_ctrls.dram.avgWrBW               84.979090                       # Average DRAM write bandwidth in MiBytes/s
system.mem_ctrls.dram.peakBW                 12800.00                       # Theoretical peak bandwidth in MiByte/s
system.mem_ctrls.dram.busUtil                    1.33                       # Data bus utilization in percentage
system.mem_ctrls.dram.busUtilRead                0.66                       # Data bus utilization in percentage for reads
system.mem_ctrls.dram.busUtilWrite               0.66                       # Data bus utilization in percentage for writes
system.mem_ctrls.dram.pageHitRate               61.78                       # Row buffer hit rate, read and write combined
system.mem_ctrls.dram.power_state.pwrStateResidencyTicks::UNDEFINED  44856211250                       # Cumulative time (in ticks) in various power states
system.mem_ctrls.dram.rank0.actEnergy       187839120                       # Energy for activate commands per rank (pJ)
system.mem_ctrls.dram.rank0.preEnergy        99819885                       # Energy for precharge commands per rank (pJ)
system.mem_ctrls.dram.rank0.readEnergy      236612460                       # Energy for read commands per rank (pJ)
system.mem_ctrls.dram.rank0.writeEnergy     172521000                       # Energy for write commands per rank (pJ)
system.mem_ctrls.dram.rank0.refreshEnergy 3540326400.000000                       # Energy for refresh commands per rank (pJ)
system.mem_ctrls.dram.rank0.actBackEnergy  16699848600                       # Energy for active background per rank (pJ)
system.mem_ctrls.dram.rank0.preBackEnergy   3161754720                       # Energy for precharge background per rank (pJ)
system.mem_ctrls.dram.rank0.actPowerDownEnergy            0                       # Energy for active power-down per rank (pJ)
system.mem_ctrls.dram.rank0.prePowerDownEnergy            0                       # Energy for precharge power-down per rank (pJ)
system.mem_ctrls.dram.rank0.selfRefreshEnergy            0                       # Energy for self refresh per rank (pJ)
system.mem_ctrls.dram.rank0.totalEnergy   24098722185                       # Total energy per rank (pJ)
system.mem_ctrls.dram.rank0.averagePower   537.243818                       # Core power per rank (mW)
system.mem_ctrls.dram.rank0.totalIdleTime            0                       # Total Idle time Per DRAM Rank
system.mem_ctrls.dram.rank0.pwrStateTime::IDLE   8066485625                       # Time in different power states
system.mem_ctrls.dram.rank0.pwrStateTime::REF   1497600000                       # Time in different power states
system.mem_ctrls.dram.rank0.pwrStateTime::SREF            0                       # Time in different power states
system.mem_ctrls.dram.rank0.pwrStateTime::PRE_PDN            0                       # Time in different power states
system.mem_ctrls.dram.rank0.pwrStateTime::ACT  35292125625                       # Time in different power states
system.mem_ctrls.dram.rank0.pwrStateTime::ACT_PDN            0                       # Time in different power states
system.mem_ctrls.dram.rank1.actEnergy       137387880                       # Energy for activate commands per rank (pJ)
system.mem_ctrls.dram.rank1.preEnergy        73015800                       # Energy for precharge commands per rank (pJ)
system.mem_ctrls.dram.rank1.readEnergy      189067200                       # Energy for read commands per rank (pJ)
system.mem_ctrls.dram.rank1.writeEnergy     138382200                       # Energy for write commands per rank (pJ)
system.mem_ctrls.dram.rank1.refreshEnergy 3540326400.000000                       # Energy for refresh commands per rank (pJ)
system.mem_ctrls.dram.rank1.actBackEnergy  14755658400                       # Energy for active background per rank (pJ)
system.mem_ctrls.dram.rank1.preBackEnergy   4798967520                       # Energy for precharge background per rank (pJ)
system.mem_ctrls.dram.rank1.actPowerDownEnergy            0                       # Energy for active power-down per rank (pJ)
system.mem_ctrls.dram.rank1.prePowerDownEnergy            0                       # Energy for precharge power-down per rank (pJ)
system.mem_ctrls.dram.rank1.selfRefreshEnergy            0                       # Energy for self refresh per rank (pJ)
system.mem_ctrls.dram.rank1.totalEnergy   23632805400                       # Total energy per rank (pJ)
system.mem_ctrls.dram.rank1.averagePower   526.856922                       # Core power per rank (mW)
system.mem_ctrls.dram.rank1.totalIdleTime            0                       # Total Idle time Per DRAM Rank
system.mem_ctrls.dram.rank1.pwrStateTime::IDLE  12339562375                       # Time in different power states
system.mem_ctrls.dram.rank1.pwrStateTime::REF   1497600000                       # Time in different power states
system.mem_ctrls.dram.rank1.pwrStateTime::SREF            0                       # Time in different power states
system.mem_ctrls.dram.rank1.pwrStateTime::PRE_PDN            0                       # Time in different power states
system.mem_ctrls.dram.rank1.pwrStateTime::ACT  31019048875                       # Time in different power states
system.mem_ctrls.dram.rank1.pwrStateTime::ACT_PDN            0                       # Time in different power states
system.mem_ctrls.power_state.pwrStateResidencyTicks::UNDEFINED  44856211250                       # Cumulative time (in ticks) in various power states
system.membus.trans_dist::ReadResp              21611                       # Transaction distribution
system.membus.trans_dist::WritebackDirty        52615                       # Transaction distribution
system.membus.trans_dist::WritebackClean         7061                       # Transaction distribution
system.membus.trans_dist::ReadExReq             38939                       # Transaction distribution
system.membus.trans_dist::ReadExResp            38939                       # Transaction distribution
system.membus.trans_dist::ReadCleanReq            400                       # Transaction distribution
system.membus.trans_dist::ReadSharedReq         21211                       # Transaction distribution
system.membus.pkt_count_system.cpu.icache.mem_side_port::system.mem_ctrls.port          838                       # Packet count per connected requestor and responder (bytes)
system.membus.pkt_count_system.cpu.dcache.mem_side_port::system.mem_ctrls.port       179938                       # Packet count per connected requestor and responder (bytes)
system.membus.pkt_count::total                 180776                       # Packet count per connected requestor and responder (bytes)
system.membus.pkt_size_system.cpu.icache.mem_side_port::system.mem_ctrls.port        28032                       # Cumulative packet size per connected requestor and responder (bytes)
system.membus.pkt_size_system.cpu.dcache.mem_side_port::system.mem_ctrls.port      7666432                       # Cumulative packet size per connected requestor and responder (bytes)
system.membus.pkt_size::total                 7694464                       # Cumulative packet size per connected requestor and responder (bytes)
system.membus.snoops                                0                       # Total snoops (count)
system.membus.snoopTraffic                          0                       # Total snoop traffic (bytes)
system.membus.snoop_fanout::samples             60550                       # Request fanout histogram
system.membus.snoop_fanout::mean             0.001453                       # Request fanout histogram
system.membus.snoop_fanout::stdev            0.038095                       # Request fanout histogram
system.membus.snoop_fanout::underflows              0      0.00%      0.00% # Request fanout histogram
system.membus.snoop_fanout::0                   60462     99.85%     99.85% # Request fanout histogram
system.membus.snoop_fanout::1                      88      0.15%    100.00% # Request fanout histogram
system.membus.snoop_fanout::2                       0      0.00%    100.00% # Request fanout histogram
system.membus.snoop_fanout::3                       0      0.00%    100.00% # Request fanout histogram
system.membus.snoop_fanout::4                       0      0.00%    100.00% # Request fanout histogram
system.membus.snoop_fanout::overflows               0      0.00%    100.00% # Request fanout histogram
system.membus.snoop_fanout::min_value               0                       # Request fanout histogram
system.membus.snoop_fanout::max_value               1                       # Request fanout histogram
system.membus.snoop_fanout::total               60550                       # Request fanout histogram
system.membus.power_state.pwrStateResidencyTicks::UNDEFINED  44856211250                       # Cumulative time (in ticks) in various power states
system.membus.reqLayer0.occupancy           410051750                       # Layer occupancy (ticks)
system.membus.reqLayer0.utilization               0.9                       # Layer utilization (%)
system.membus.respLayer1.occupancy            2126625                       # Layer occupancy (ticks)
system.membus.respLayer1.utilization              0.0                       # Layer utilization (%)
system.membus.respLayer2.occupancy          323079750                       # Layer occupancy (ticks)
system.membus.respLayer2.utilization              0.7                       # Layer utilization (%)
system.voltage_domain.voltage                       1                       # Voltage in Volts

---------- End Simulation Statistics   ----------
