
---------- Begin Simulation Statistics ----------
final_tick                                75083566875                       # Number of ticks from beginning of simulation (restored from checkpoints and never reset)
host_inst_rate                                 220808                       # Simulator instruction rate (inst/s)
host_mem_usage                                 658104                       # Number of bytes of host memory used
host_op_rate                                   257610                       # Simulator op (including micro ops) rate (op/s)
host_seconds                                   452.88                       # Real time elapsed on the host
host_tick_rate                              165790856                       # Simulator tick rate (ticks/s)
sim_freq                                 1000000000000                       # Frequency of simulated ticks
sim_insts                                   100000000                       # Number of instructions simulated
sim_ops                                     116666626                       # Number of ops (including micro ops) simulated
sim_seconds                                  0.075084                       # Number of seconds simulated
sim_ticks                                 75083566875                       # Number of ticks simulated
system.cpu.cc_regfile_reads                 420131240                       # number of cc regfile reads
system.cpu.cc_regfile_writes                100341083                       # number of cc regfile writes
system.cpu.committedInsts                   100000000                       # Number of Instructions Simulated
system.cpu.committedOps                     116666626                       # Number of Ops (including micro ops) Simulated
system.cpu.cpi                               1.201337                       # CPI: Cycles Per Instruction
system.cpu.cpi_total                         1.201337                       # CPI: Total CPI of All Threads
system.cpu.idleCycles                           18591                       # Total number of cycles that the CPU has spent unscheduled due to idling
system.cpu.iew.branchMispredicts                  442                       # Number of branch mispredicts detected at execute
system.cpu.iew.branch_mispredict_rate        0.002645                       # Percentage of branch mispredicts
system.cpu.iew.branch_percentage            13.548653                       # Percentage of branches executed
system.cpu.iew.exec_branches                 16708139                       # Number of branches executed
system.cpu.iew.exec_nop                            39                       # number of nop insts executed
system.cpu.iew.exec_rate                     1.026519                       # Inst execution rate
system.cpu.iew.exec_refs                     39714983                       # number of memory reference insts executed
system.cpu.iew.exec_stores                   16732731                       # Number of stores executed
system.cpu.iew.exec_swp                             0                       # number of swp insts executed
system.cpu.iew.iewBlockCycles                   25203                       # Number of cycles IEW is blocking
system.cpu.iew.iewDispLoadInsts              16733225                       # Number of dispatched load instructions
system.cpu.iew.iewDispNonSpecInsts                 69                       # Number of dispatched non-speculative instructions
system.cpu.iew.iewDispSquashedInsts                 0                       # Number of squashed instructions skipped by dispatch
system.cpu.iew.iewDispStoreInsts             16741274                       # Number of dispatched store instructions
system.cpu.iew.iewDispatchedInsts           117154344                       # Number of instructions dispatched to IQ
system.cpu.iew.iewExecLoadInsts              22982252                       # Number of load instructions executed
system.cpu.iew.iewExecSquashedInsts             25178                       # Number of squashed instructions skipped in execute
system.cpu.iew.iewExecutedInsts             123319562                       # Number of executed instructions
system.cpu.iew.iewIQFullEvents                      6                       # Number of times the IQ has become full, causing a stall
system.cpu.iew.iewIdleCycles                        0                       # Number of cycles IEW is idle
system.cpu.iew.iewLSQFullEvents                    76                       # Number of times the LSQ has become full, causing a stall
system.cpu.iew.iewSquashCycles                   8630                       # Number of cycles IEW is squashing
system.cpu.iew.iewUnblockCycles                    86                       # Number of cycles IEW is unblocking
system.cpu.iew.memOrderViolationEvents             28                       # Number of memory order violations
system.cpu.iew.predictedNotTakenIncorrect          402                       # Number of branches that were predicted not taken incorrectly
system.cpu.iew.predictedTakenIncorrect             40                       # Number of branches that were predicted taken incorrectly
system.cpu.iew.wb_consumers                 110981282                       # num instructions consuming a value
system.cpu.iew.wb_count                     117037042                       # cumulative count of insts written-back
system.cpu.iew.wb_fanout                     0.680654                       # average fanout of values written-back
system.cpu.iew.wb_producers                  75539877                       # num instructions producing a value
system.cpu.iew.wb_rate                       0.974223                       # insts written-back per cycle
system.cpu.iew.wb_sent                      117061769                       # cumulative count of insts sent to commit
system.cpu.int_regfile_reads                156773379                       # number of integer regfile reads
system.cpu.int_regfile_writes                66905595                       # number of integer regfile writes
system.cpu.ipc                               0.832406                       # IPC: Instructions Per Cycle
system.cpu.ipc_total                         0.832406                       # IPC: Total IPC of All Threads
system.cpu.iq.FU_type_0::No_OpClass                 0      0.00%      0.00% # Type of FU issued
system.cpu.iq.FU_type_0::IntAlu              83621125     67.79%     67.79% # Type of FU issued
system.cpu.iq.FU_type_0::IntMult                   45      0.00%     67.79% # Type of FU issued
system.cpu.iq.FU_type_0::IntDiv                     0      0.00%     67.79% # Type of FU issued
system.cpu.iq.FU_type_0::FloatAdd                   0      0.00%     67.79% # Type of FU issued
system.cpu.iq.FU_type_0::FloatCmp                   0      0.00%     67.79% # Type of FU issued
system.cpu.iq.FU_type_0::FloatCvt                   0      0.00%     67.79% # Type of FU issued
system.cpu.iq.FU_type_0::FloatMult                  0      0.00%     67.79% # Type of FU issued
system.cpu.iq.FU_type_0::FloatMultAcc               0      0.00%     67.79% # Type of FU issued
system.cpu.iq.FU_type_0::FloatDiv                   0      0.00%     67.79% # Type of FU issued
system.cpu.iq.FU_type_0::FloatMisc                  0      0.00%     67.79% # Type of FU issued
system.cpu.iq.FU_type_0::FloatSqrt                  0      0.00%     67.79% # Type of FU issued
system.cpu.iq.FU_type_0::SimdAdd                    6      0.00%     67.79% # Type of FU issued
system.cpu.iq.FU_type_0::SimdAddAcc                 1      0.00%     67.79% # Type of FU issued
system.cpu.iq.FU_type_0::SimdAlu                    0      0.00%     67.79% # Type of FU issued
system.cpu.iq.FU_type_0::SimdCmp                    0      0.00%     67.79% # Type of FU issued
system.cpu.iq.FU_type_0::SimdCvt                    0      0.00%     67.79% # Type of FU issued
system.cpu.iq.FU_type_0::SimdMisc                   0      0.00%     67.79% # Type of FU issued
system.cpu.iq.FU_type_0::SimdMult                   0      0.00%     67.79% # Type of FU issued
system.cpu.iq.FU_type_0::SimdMultAcc                0      0.00%     67.79% # Type of FU issued
system.cpu.iq.FU_type_0::SimdShift                  5      0.00%     67.79% # Type of FU issued
system.cpu.iq.FU_type_0::SimdShiftAcc               0      0.00%     67.79% # Type of FU issued
system.cpu.iq.FU_type_0::SimdDiv                    0      0.00%     67.79% # Type of FU issued
system.cpu.iq.FU_type_0::SimdSqrt                   0      0.00%     67.79% # Type of FU issued
system.cpu.iq.FU_type_0::SimdFloatAdd               8      0.00%     67.79% # Type of FU issued
system.cpu.iq.FU_type_0::SimdFloatAlu               0      0.00%     67.79% # Type of FU issued
system.cpu.iq.FU_type_0::SimdFloatCmp               9      0.00%     67.79% # Type of FU issued
system.cpu.iq.FU_type_0::SimdFloatCvt               7      0.00%     67.79% # Type of FU issued
system.cpu.iq.FU_type_0::SimdFloatDiv               3      0.00%     67.79% # Type of FU issued
system.cpu.iq.FU_type_0::SimdFloatMisc             35      0.00%     67.79% # Type of FU issued
system.cpu.iq.FU_type_0::SimdFloatMult             19      0.00%     67.79% # Type of FU issued
system.cpu.iq.FU_type_0::SimdFloatMultAcc            6      0.00%     67.79% # Type of FU issued
system.cpu.iq.FU_type_0::SimdFloatSqrt              0      0.00%     67.79% # Type of FU issued
system.cpu.iq.FU_type_0::SimdReduceAdd              0      0.00%     67.79% # Type of FU issued
system.cpu.iq.FU_type_0::SimdReduceAlu              0      0.00%     67.79% # Type of FU issued
system.cpu.iq.FU_type_0::SimdReduceCmp              0      0.00%     67.79% # Type of FU issued
system.cpu.iq.FU_type_0::SimdFloatReduceAdd            0      0.00%     67.79% # Type of FU issued
system.cpu.iq.FU_type_0::SimdFloatReduceCmp            0      0.00%     67.79% # Type of FU issued
system.cpu.iq.FU_type_0::SimdAes                    0      0.00%     67.79% # Type of FU issued
system.cpu.iq.FU_type_0::SimdAesMix                 0      0.00%     67.79% # Type of FU issued
system.cpu.iq.FU_type_0::SimdSha1Hash               0      0.00%     67.79% # Type of FU issued
system.cpu.iq.FU_type_0::SimdSha1Hash2              0      0.00%     67.79% # Type of FU issued
system.cpu.iq.FU_type_0::SimdSha256Hash             0      0.00%     67.79% # Type of FU issued
system.cpu.iq.FU_type_0::SimdSha256Hash2            0      0.00%     67.79% # Type of FU issued
system.cpu.iq.FU_type_0::SimdShaSigma2              0      0.00%     67.79% # Type of FU issued
system.cpu.iq.FU_type_0::SimdShaSigma3              0      0.00%     67.79% # Type of FU issued
system.cpu.iq.FU_type_0::SimdPredAlu                0      0.00%     67.79% # Type of FU issued
system.cpu.iq.FU_type_0::MemRead             22982450     18.63%     86.43% # Type of FU issued
system.cpu.iq.FU_type_0::MemWrite            16741023     13.57%    100.00% # Type of FU issued
system.cpu.iq.FU_type_0::FloatMemRead               0      0.00%    100.00% # Type of FU issued
system.cpu.iq.FU_type_0::FloatMemWrite              0      0.00%    100.00% # Type of FU issued
system.cpu.iq.FU_type_0::IprAccess                  0      0.00%    100.00% # Type of FU issued
system.cpu.iq.FU_type_0::InstPrefetch               0      0.00%    100.00% # Type of FU issued
system.cpu.iq.FU_type_0::total              123344742                       # Type of FU issued
system.cpu.iq.fp_alu_accesses                       0                       # Number of floating point alu accesses
system.cpu.iq.fp_inst_queue_reads                   0                       # Number of floating instruction queue reads
system.cpu.iq.fp_inst_queue_wakeup_accesses            0                       # Number of floating instruction queue wakeup accesses
system.cpu.iq.fp_inst_queue_writes                  0                       # Number of floating instruction queue writes
system.cpu.iq.fu_busy_cnt                    32357338                       # FU busy when requested
system.cpu.iq.fu_busy_rate                   0.262333                       # FU busy rate (busy events/executed inst)
system.cpu.iq.fu_full::No_OpClass                   0      0.00%      0.00% # attempts to use FU when none available
system.cpu.iq.fu_full::IntAlu                27147599     83.90%     83.90% # attempts to use FU when none available
system.cpu.iq.fu_full::IntMult                      1      0.00%     83.90% # attempts to use FU when none available
system.cpu.iq.fu_full::IntDiv                       0      0.00%     83.90% # attempts to use FU when none available
system.cpu.iq.fu_full::FloatAdd                     0      0.00%     83.90% # attempts to use FU when none available
system.cpu.iq.fu_full::FloatCmp                     0      0.00%     83.90% # attempts to use FU when none available
system.cpu.iq.fu_full::FloatCvt                     0      0.00%     83.90% # attempts to use FU when none available
system.cpu.iq.fu_full::FloatMult                    0      0.00%     83.90% # attempts to use FU when none available
system.cpu.iq.fu_full::FloatMultAcc                 0      0.00%     83.90% # attempts to use FU when none available
system.cpu.iq.fu_full::FloatDiv                     0      0.00%     83.90% # attempts to use FU when none available
system.cpu.iq.fu_full::FloatMisc                    0      0.00%     83.90% # attempts to use FU when none available
system.cpu.iq.fu_full::FloatSqrt                    0      0.00%     83.90% # attempts to use FU when none available
system.cpu.iq.fu_full::SimdAdd                      0      0.00%     83.90% # attempts to use FU when none available
system.cpu.iq.fu_full::SimdAddAcc                   0      0.00%     83.90% # attempts to use FU when none available
system.cpu.iq.fu_full::SimdAlu                      0      0.00%     83.90% # attempts to use FU when none available
system.cpu.iq.fu_full::SimdCmp                      0      0.00%     83.90% # attempts to use FU when none available
system.cpu.iq.fu_full::SimdCvt                      0      0.00%     83.90% # attempts to use FU when none available
system.cpu.iq.fu_full::SimdMisc                     0      0.00%     83.90% # attempts to use FU when none available
system.cpu.iq.fu_full::SimdMult                     0      0.00%     83.90% # attempts to use FU when none available
system.cpu.iq.fu_full::SimdMultAcc                  0      0.00%     83.90% # attempts to use FU when none available
system.cpu.iq.fu_full::SimdShift                    0      0.00%     83.90% # attempts to use FU when none available
system.cpu.iq.fu_full::SimdShiftAcc                 0      0.00%     83.90% # attempts to use FU when none available
system.cpu.iq.fu_full::SimdDiv                      0      0.00%     83.90% # attempts to use FU when none available
system.cpu.iq.fu_full::SimdSqrt                     0      0.00%     83.90% # attempts to use FU when none available
system.cpu.iq.fu_full::SimdFloatAdd                 0      0.00%     83.90% # attempts to use FU when none available
system.cpu.iq.fu_full::SimdFloatAlu                 0      0.00%     83.90% # attempts to use FU when none available
system.cpu.iq.fu_full::SimdFloatCmp                 0      0.00%     83.90% # attempts to use FU when none available
system.cpu.iq.fu_full::SimdFloatCvt                 0      0.00%     83.90% # attempts to use FU when none available
system.cpu.iq.fu_full::SimdFloatDiv                 0      0.00%     83.90% # attempts to use FU when none available
system.cpu.iq.fu_full::SimdFloatMisc                1      0.00%     83.90% # attempts to use FU when none available
system.cpu.iq.fu_full::SimdFloatMult                0      0.00%     83.90% # attempts to use FU when none available
system.cpu.iq.fu_full::SimdFloatMultAcc             0      0.00%     83.90% # attempts to use FU when none available
system.cpu.iq.fu_full::SimdFloatSqrt                0      0.00%     83.90% # attempts to use FU when none available
system.cpu.iq.fu_full::SimdReduceAdd                0      0.00%     83.90% # attempts to use FU when none available
system.cpu.iq.fu_full::SimdReduceAlu                0      0.00%     83.90% # attempts to use FU when none available
system.cpu.iq.fu_full::SimdReduceCmp                0      0.00%     83.90% # attempts to use FU when none available
system.cpu.iq.fu_full::SimdFloatReduceAdd            0      0.00%     83.90% # attempts to use FU when none available
system.cpu.iq.fu_full::SimdFloatReduceCmp            0      0.00%     83.90% # attempts to use FU when none available
system.cpu.iq.fu_full::SimdAes                      0      0.00%     83.90% # attempts to use FU when none available
system.cpu.iq.fu_full::SimdAesMix                   0      0.00%     83.90% # attempts to use FU when none available
system.cpu.iq.fu_full::SimdSha1Hash                 0      0.00%     83.90% # attempts to use FU when none available
system.cpu.iq.fu_full::SimdSha1Hash2                0      0.00%     83.90% # attempts to use FU when none available
system.cpu.iq.fu_full::SimdSha256Hash               0      0.00%     83.90% # attempts to use FU when none available
system.cpu.iq.fu_full::SimdSha256Hash2              0      0.00%     83.90% # attempts to use FU when none available
system.cpu.iq.fu_full::SimdShaSigma2                0      0.00%     83.90% # attempts to use FU when none available
system.cpu.iq.fu_full::SimdShaSigma3                0      0.00%     83.90% # attempts to use FU when none available
system.cpu.iq.fu_full::SimdPredAlu                  0      0.00%     83.90% # attempts to use FU when none available
system.cpu.iq.fu_full::MemRead                5208611     16.10%    100.00% # attempts to use FU when none available
system.cpu.iq.fu_full::MemWrite                  1126      0.00%    100.00% # attempts to use FU when none available
system.cpu.iq.fu_full::FloatMemRead                 0      0.00%    100.00% # attempts to use FU when none available
system.cpu.iq.fu_full::FloatMemWrite                0      0.00%    100.00% # attempts to use FU when none available
system.cpu.iq.fu_full::IprAccess                    0      0.00%    100.00% # attempts to use FU when none available
system.cpu.iq.fu_full::InstPrefetch                 0      0.00%    100.00% # attempts to use FU when none available
system.cpu.iq.int_alu_accesses              155702080                       # Number of integer alu accesses
system.cpu.iq.int_inst_queue_reads          399178556                       # Number of integer instruction queue reads
system.cpu.iq.int_inst_queue_wakeup_accesses    117037042                       # Number of integer instruction queue wakeup accesses
system.cpu.iq.int_inst_queue_writes         117641988                       # Number of integer instruction queue writes
system.cpu.iq.iqInstsAdded                  117154193                       # Number of instructions added to the IQ (excludes non-spec)
system.cpu.iq.iqInstsIssued                 123344742                       # Number of instructions issued
system.cpu.iq.iqNonSpecInstsAdded                 112                       # Number of non-speculative instructions added to the IQ
system.cpu.iq.iqSquashedInstsExamined          487655                       # Number of squashed instructions iterated over during squash; mainly for profiling
system.cpu.iq.iqSquashedInstsIssued             16619                       # Number of squashed instructions issued
system.cpu.iq.iqSquashedNonSpecRemoved             28                       # Number of squashed non-spec instructions that were removed
system.cpu.iq.iqSquashedOperandsExamined       485459                       # Number of squashed operands that are examined and possibly removed from graph
system.cpu.iq.issued_per_cycle::samples     120115117                       # Number of insts issued each cycle
system.cpu.iq.issued_per_cycle::mean         1.026888                       # Number of insts issued each cycle
system.cpu.iq.issued_per_cycle::stdev        1.276887                       # Number of insts issued each cycle
system.cpu.iq.issued_per_cycle::underflows            0      0.00%      0.00% # Number of insts issued each cycle
system.cpu.iq.issued_per_cycle::0            67496392     56.19%     56.19% # Number of insts issued each cycle
system.cpu.iq.issued_per_cycle::1             9367242      7.80%     63.99% # Number of insts issued each cycle
system.cpu.iq.issued_per_cycle::2            17154947     14.28%     78.27% # Number of insts issued each cycle
system.cpu.iq.issued_per_cycle::3            24718539     20.58%     98.85% # Number of insts issued each cycle
system.cpu.iq.issued_per_cycle::4             1377996      1.15%    100.00% # Number of insts issued each cycle
system.cpu.iq.issued_per_cycle::5                   1      0.00%    100.00% # Number of insts issued each cycle
system.cpu.iq.issued_per_cycle::6                   0      0.00%    100.00% # Number of insts issued each cycle
system.cpu.iq.issued_per_cycle::7                   0      0.00%    100.00% # Number of insts issued each cycle
system.cpu.iq.issued_per_cycle::8                   0      0.00%    100.00% # Number of insts issued each cycle
system.cpu.iq.issued_per_cycle::overflows            0      0.00%    100.00% # Number of insts issued each cycle
system.cpu.iq.issued_per_cycle::min_value            0                       # Number of insts issued each cycle
system.cpu.iq.issued_per_cycle::max_value            5                       # Number of insts issued each cycle
system.cpu.iq.issued_per_cycle::total       120115117                       # Number of insts issued each cycle
system.cpu.iq.rate                           1.026729                       # Inst issue rate
system.cpu.iq.vec_alu_accesses                      0                       # Number of vector alu accesses
system.cpu.iq.vec_inst_queue_reads                  0                       # Number of vector instruction queue reads
system.cpu.iq.vec_inst_queue_wakeup_accesses            0                       # Number of vector instruction queue wakeup accesses
system.cpu.iq.vec_inst_queue_writes                 0                       # Number of vector instruction queue writes
system.cpu.memDep0.conflictingLoads               112                       # Number of conflicting loads.
system.cpu.memDep0.conflictingStores               58                       # Number of conflicting stores.
system.cpu.memDep0.insertedLoads             16733225                       # Number of loads inserted to the mem dependence unit.
system.cpu.memDep0.insertedStores            16741274                       # Number of stores inserted to the mem dependence unit.
system.cpu.misc_regfile_reads               301580117                       # number of misc regfile reads
system.cpu.misc_regfile_writes                    197                       # number of misc regfile writes
system.cpu.numCycles                        120133708                       # number of cpu cycles simulated
system.cpu.numWorkItemsCompleted                    0                       # number of work items this cpu completed
system.cpu.numWorkItemsStarted                      0                       # number of work items this cpu started
system.cpu.timesIdled                             293                       # Number of times that the entire CPU went into an idle state and unscheduled itself
system.cpu.vec_regfile_reads                      254                       # number of vector regfile reads
system.cpu.vec_regfile_writes                     183                       # number of vector regfile writes
system.cpu.workload.numSyscalls                    11                       # Number of system calls
system.membus.snoop_filter.hit_multi_requests           18                       # Number of requests hitting in the snoop filter with multiple (>1) holders of the requested data.
system.membus.snoop_filter.hit_multi_snoops            0                       # Number of snoops hitting in the snoop filter with multiple (>1) holders of the requested data.
system.membus.snoop_filter.hit_single_requests      1041261                       # Number of requests hitting in the snoop filter with a single holder of the requested data.
system.membus.snoop_filter.hit_single_snoops            0                       # Number of snoops hitting in the snoop filter with a single holder of the requested data.
system.membus.snoop_filter.tot_requests       2083397                       # Total number of requests made to the snoop filter.
system.membus.snoop_filter.tot_snoops               0                       # Total number of snoops made to the snoop filter.
system.clk_domain.clock                          1000                       # Clock period in ticks
system.cpu.branchPred.lookups                16775301                       # Number of BP lookups
system.cpu.branchPred.condPredicted          16774142                       # Number of conditional branches predicted
system.cpu.branchPred.condIncorrect               635                       # Number of conditional branches incorrect
system.cpu.branchPred.BTBLookups             16772786                       # Number of BTB lookups
system.cpu.branchPred.BTBHits                16772364                       # Number of BTB hits
system.cpu.branchPred.BTBHitPct             99.997484                       # BTB Hit Percentage
system.cpu.branchPred.RASUsed                     312                       # Number of times the RAS was used to get a target.
system.cpu.branchPred.RASIncorrect                  2                       # Number of incorrect RAS predictions.
system.cpu.branchPred.indirectLookups             103                       # Number of indirect predictor lookups.
system.cpu.branchPred.indirectHits                 11                       # Number of indirect target hits.
system.cpu.branchPred.indirectMisses               92                       # Number of indirect misses.
system.cpu.branchPred.indirectMispredicted           57                       # Number of mispredicted indirect branches.
system.cpu.commit.commitSquashedInsts          216724                       # The number of squashed insts skipped by commit
system.cpu.commit.commitNonSpecStalls              84                       # The number of times commit has been forced to stall to communicate backwards
system.cpu.commit.branchMispredicts               401                       # The number of times a branch was mispredicted
system.cpu.commit.numCommittedDist::samples    120081630                       # Number of insts commited each cycle
system.cpu.commit.numCommittedDist::mean     0.971561                       # Number of insts commited each cycle
system.cpu.commit.numCommittedDist::stdev     1.931712                       # Number of insts commited each cycle
system.cpu.commit.numCommittedDist::underflows            0      0.00%      0.00% # Number of insts commited each cycle
system.cpu.commit.numCommittedDist::0        80800342     67.29%     67.29% # Number of insts commited each cycle
system.cpu.commit.numCommittedDist::1        21580206     17.97%     85.26% # Number of insts commited each cycle
system.cpu.commit.numCommittedDist::2            1339      0.00%     85.26% # Number of insts commited each cycle
system.cpu.commit.numCommittedDist::3         2075400      1.73%     86.99% # Number of insts commited each cycle
system.cpu.commit.numCommittedDist::4         3116862      2.60%     89.58% # Number of insts commited each cycle
system.cpu.commit.numCommittedDist::5         1771637      1.48%     91.06% # Number of insts commited each cycle
system.cpu.commit.numCommittedDist::6         7619127      6.34%     97.40% # Number of insts commited each cycle
system.cpu.commit.numCommittedDist::7         3116576      2.60%    100.00% # Number of insts commited each cycle
system.cpu.commit.numCommittedDist::8             141      0.00%    100.00% # Number of insts commited each cycle
system.cpu.commit.numCommittedDist::overflows            0      0.00%    100.00% # Number of insts commited each cycle
system.cpu.commit.numCommittedDist::min_value            0                       # Number of insts commited each cycle
system.cpu.commit.numCommittedDist::max_value            8                       # Number of insts commited each cycle
system.cpu.commit.numCommittedDist::total    120081630                       # Number of insts commited each cycle
system.cpu.commit.instsCommitted            100000013                       # Number of instructions committed
system.cpu.commit.opsCommitted              116666639                       # Number of ops (including micro ops) committed
system.cpu.commit.memRefs                    33333739                       # Number of memory references committed
system.cpu.commit.loads                      16666765                       # Number of loads committed
system.cpu.commit.amos                              0                       # Number of atomic instructions committed
system.cpu.commit.membars                          37                       # Number of memory barriers committed
system.cpu.commit.branches                   16666878                       # Number of branches committed
system.cpu.commit.vector                            0                       # Number of committed Vector instructions.
system.cpu.commit.floating                          0                       # Number of committed floating point instructions.
system.cpu.commit.integer                    99999941                       # Number of committed integer instructions.
system.cpu.commit.functionCalls                   172                       # Number of function calls committed.
system.cpu.commit.committedInstType_0::No_OpClass            0      0.00%      0.00% # Class of committed instruction
system.cpu.commit.committedInstType_0::IntAlu     83332775     71.43%     71.43% # Class of committed instruction
system.cpu.commit.committedInstType_0::IntMult           43      0.00%     71.43% # Class of committed instruction
system.cpu.commit.committedInstType_0::IntDiv            0      0.00%     71.43% # Class of committed instruction
system.cpu.commit.committedInstType_0::FloatAdd            0      0.00%     71.43% # Class of committed instruction
system.cpu.commit.committedInstType_0::FloatCmp            0      0.00%     71.43% # Class of committed instruction
system.cpu.commit.committedInstType_0::FloatCvt            0      0.00%     71.43% # Class of committed instruction
system.cpu.commit.committedInstType_0::FloatMult            0      0.00%     71.43% # Class of committed instruction
system.cpu.commit.committedInstType_0::FloatMultAcc            0      0.00%     71.43% # Class of committed instruction
system.cpu.commit.committedInstType_0::FloatDiv            0      0.00%     71.43% # Class of committed instruction
system.cpu.commit.committedInstType_0::FloatMisc            0      0.00%     71.43% # Class of committed instruction
system.cpu.commit.committedInstType_0::FloatSqrt            0      0.00%     71.43% # Class of committed instruction
system.cpu.commit.committedInstType_0::SimdAdd            0      0.00%     71.43% # Class of committed instruction
system.cpu.commit.committedInstType_0::SimdAddAcc            0      0.00%     71.43% # Class of committed instruction
system.cpu.commit.committedInstType_0::SimdAlu            0      0.00%     71.43% # Class of committed instruction
system.cpu.commit.committedInstType_0::SimdCmp            0      0.00%     71.43% # Class of committed instruction
system.cpu.commit.committedInstType_0::SimdCvt            0      0.00%     71.43% # Class of committed instruction
system.cpu.commit.committedInstType_0::SimdMisc            0      0.00%     71.43% # Class of committed instruction
system.cpu.commit.committedInstType_0::SimdMult            0      0.00%     71.43% # Class of committed instruction
system.cpu.commit.committedInstType_0::SimdMultAcc            0      0.00%     71.43% # Class of committed instruction
system.cpu.commit.committedInstType_0::SimdShift            0      0.00%     71.43% # Class of committed instruction
system.cpu.commit.committedInstType_0::SimdShiftAcc            0      0.00%     71.43% # Class of committed instruction
system.cpu.commit.committedInstType_0::SimdDiv            0      0.00%     71.43% # Class of committed instruction
system.cpu.commit.committedInstType_0::SimdSqrt            0      0.00%     71.43% # Class of committed instruction
system.cpu.commit.committedInstType_0::SimdFloatAdd            8      0.00%     71.43% # Class of committed instruction
system.cpu.commit.committedInstType_0::SimdFloatAlu            0      0.00%     71.43% # Class of committed instruction
system.cpu.commit.committedInstType_0::SimdFloatCmp            9      0.00%     71.43% # Class of committed instruction
system.cpu.commit.committedInstType_0::SimdFloatCvt            7      0.00%     71.43% # Class of committed instruction
system.cpu.commit.committedInstType_0::SimdFloatDiv            3      0.00%     71.43% # Class of committed instruction
system.cpu.commit.committedInstType_0::SimdFloatMisc           30      0.00%     71.43% # Class of committed instruction
system.cpu.commit.committedInstType_0::SimdFloatMult           19      0.00%     71.43% # Class of committed instruction
system.cpu.commit.committedInstType_0::SimdFloatMultAcc            6      0.00%     71.43% # Class of committed instruction
system.cpu.commit.committedInstType_0::SimdFloatSqrt            0      0.00%     71.43% # Class of committed instruction
system.cpu.commit.committedInstType_0::SimdReduceAdd            0      0.00%     71.43% # Class of committed instruction
system.cpu.commit.committedInstType_0::SimdReduceAlu            0      0.00%     71.43% # Class of committed instruction
system.cpu.commit.committedInstType_0::SimdReduceCmp            0      0.00%     71.43% # Class of committed instruction
system.cpu.commit.committedInstType_0::SimdFloatReduceAdd            0      0.00%     71.43% # Class of committed instruction
system.cpu.commit.committedInstType_0::SimdFloatReduceCmp            0      0.00%     71.43% # Class of committed instruction
system.cpu.commit.committedInstType_0::SimdAes            0      0.00%     71.43% # Class of committed instruction
system.cpu.commit.committedInstType_0::SimdAesMix            0      0.00%     71.43% # Class of committed instruction
system.cpu.commit.committedInstType_0::SimdSha1Hash            0      0.00%     71.43% # Class of committed instruction
system.cpu.commit.committedInstType_0::SimdSha1Hash2            0      0.00%     71.43% # Class of committed instruction
system.cpu.commit.committedInstType_0::SimdSha256Hash            0      0.00%     71.43% # Class of committed instruction
system.cpu.commit.committedInstType_0::SimdSha256Hash2            0      0.00%     71.43% # Class of committed instruction
system.cpu.commit.committedInstType_0::SimdShaSigma2            0      0.00%     71.43% # Class of committed instruction
system.cpu.commit.committedInstType_0::SimdShaSigma3            0      0.00%     71.43% # Class of committed instruction
system.cpu.commit.committedInstType_0::SimdPredAlu            0      0.00%     71.43% # Class of committed instruction
system.cpu.commit.committedInstType_0::MemRead     16666765     14.29%     85.71% # Class of committed instruction
system.cpu.commit.committedInstType_0::MemWrite     16666974     14.29%    100.00% # Class of committed instruction
system.cpu.commit.committedInstType_0::FloatMemRead            0      0.00%    100.00% # Class of committed instruction
system.cpu.commit.committedInstType_0::FloatMemWrite            0      0.00%    100.00% # Class of committed instruction
system.cpu.commit.committedInstType_0::IprAccess            0      0.00%    100.00% # Class of committed instruction
system.cpu.commit.committedInstType_0::InstPrefetch            0      0.00%    100.00% # Class of committed instruction
system.cpu.commit.committedInstType_0::total    116666639                       # Class of committed instruction
system.cpu.commit.commitEligibleSamples           141                       # number cycles where commit BW limit reached
system.cpu.dcache.demand_hits::.cpu.data     25066550                       # number of demand (read+write) hits
system.cpu.dcache.demand_hits::total         25066550                       # number of demand (read+write) hits
system.cpu.dcache.overall_hits::.cpu.data     25066562                       # number of overall hits
system.cpu.dcache.overall_hits::total        25066562                       # number of overall hits
system.cpu.dcache.demand_misses::.cpu.data      8332975                       # number of demand (read+write) misses
system.cpu.dcache.demand_misses::total        8332975                       # number of demand (read+write) misses
system.cpu.dcache.overall_misses::.cpu.data      8332987                       # number of overall misses
system.cpu.dcache.overall_misses::total       8332987                       # number of overall misses
system.cpu.dcache.demand_miss_latency::.cpu.data 491316785500                       # number of demand (read+write) miss cycles
system.cpu.dcache.demand_miss_latency::total 491316785500                       # number of demand (read+write) miss cycles
system.cpu.dcache.overall_miss_latency::.cpu.data 491316785500                       # number of overall miss cycles
system.cpu.dcache.overall_miss_latency::total 491316785500                       # number of overall miss cycles
system.cpu.dcache.demand_accesses::.cpu.data     33399525                       # number of demand (read+write) accesses
system.cpu.dcache.demand_accesses::total     33399525                       # number of demand (read+write) accesses
system.cpu.dcache.overall_accesses::.cpu.data     33399549                       # number of overall (read+write) accesses
system.cpu.dcache.overall_accesses::total     33399549                       # number of overall (read+write) accesses
system.cpu.dcache.demand_miss_rate::.cpu.data     0.249494                       # miss rate for demand accesses
system.cpu.dcache.demand_miss_rate::total     0.249494                       # miss rate for demand accesses
system.cpu.dcache.overall_miss_rate::.cpu.data     0.249494                       # miss rate for overall accesses
system.cpu.dcache.overall_miss_rate::total     0.249494                       # miss rate for overall accesses
system.cpu.dcache.demand_avg_miss_latency::.cpu.data 58960.549564                       # average overall miss latency
system.cpu.dcache.demand_avg_miss_latency::total 58960.549564                       # average overall miss latency
system.cpu.dcache.overall_avg_miss_latency::.cpu.data 58960.464657                       # average overall miss latency
system.cpu.dcache.overall_avg_miss_latency::total 58960.464657                       # average overall miss latency
system.cpu.dcache.blocked_cycles::no_mshrs            0                       # number of cycles access was blocked
system.cpu.dcache.blocked_cycles::no_targets     79119385                       # number of cycles access was blocked
system.cpu.dcache.blocked::no_mshrs                 0                       # number of cycles access was blocked
system.cpu.dcache.blocked::no_targets         1041590                       # number of cycles access was blocked
system.cpu.dcache.avg_blocked_cycles::no_mshrs          nan                       # average number of cycles each access was blocked
system.cpu.dcache.avg_blocked_cycles::no_targets    75.960200                       # average number of cycles each access was blocked
system.cpu.dcache.writebacks::.writebacks      1041230                       # number of writebacks
system.cpu.dcache.writebacks::total           1041230                       # number of writebacks
system.cpu.dcache.demand_mshr_hits::.cpu.data      7291245                       # number of demand (read+write) MSHR hits
system.cpu.dcache.demand_mshr_hits::total      7291245                       # number of demand (read+write) MSHR hits
system.cpu.dcache.overall_mshr_hits::.cpu.data      7291245                       # number of overall MSHR hits
system.cpu.dcache.overall_mshr_hits::total      7291245                       # number of overall MSHR hits
system.cpu.dcache.demand_mshr_misses::.cpu.data      1041730                       # number of demand (read+write) MSHR misses
system.cpu.dcache.demand_mshr_misses::total      1041730                       # number of demand (read+write) MSHR misses
system.cpu.dcache.overall_mshr_misses::.cpu.data      1041738                       # number of overall MSHR misses
system.cpu.dcache.overall_mshr_misses::total      1041738                       # number of overall MSHR misses
system.cpu.dcache.demand_mshr_miss_latency::.cpu.data  63314690875                       # number of demand (read+write) MSHR miss cycles
system.cpu.dcache.demand_mshr_miss_latency::total  63314690875                       # number of demand (read+write) MSHR miss cycles
system.cpu.dcache.overall_mshr_miss_latency::.cpu.data  63315163500                       # number of overall MSHR miss cycles
system.cpu.dcache.overall_mshr_miss_latency::total  63315163500                       # number of overall MSHR miss cycles
system.cpu.dcache.demand_mshr_miss_rate::.cpu.data     0.031190                       # mshr miss rate for demand accesses
system.cpu.dcache.demand_mshr_miss_rate::total     0.031190                       # mshr miss rate for demand accesses
system.cpu.dcache.overall_mshr_miss_rate::.cpu.data     0.031190                       # mshr miss rate for overall accesses
system.cpu.dcache.overall_mshr_miss_rate::total     0.031190                       # mshr miss rate for overall accesses
system.cpu.dcache.demand_avg_mshr_miss_latency::.cpu.data 60778.407913                       # average overall mshr miss latency
system.cpu.dcache.demand_avg_mshr_miss_latency::total 60778.407913                       # average overall mshr miss latency
system.cpu.dcache.overall_avg_mshr_miss_latency::.cpu.data 60778.394856                       # average overall mshr miss latency
system.cpu.dcache.overall_avg_mshr_miss_latency::total 60778.394856                       # average overall mshr miss latency
system.cpu.dcache.replacements                1041230                       # number of replacements
system.cpu.dcache.ReadReq_hits::.cpu.data     16732467                       # number of ReadReq hits
system.cpu.dcache.ReadReq_hits::total        16732467                       # number of ReadReq hits
system.cpu.dcache.ReadReq_misses::.cpu.data          177                       # number of ReadReq misses
system.cpu.dcache.ReadReq_misses::total           177                       # number of ReadReq misses
system.cpu.dcache.ReadReq_miss_latency::.cpu.data     10697625                       # number of ReadReq miss cycles
system.cpu.dcache.ReadReq_miss_latency::total     10697625                       # number of ReadReq miss cycles
system.cpu.dcache.ReadReq_accesses::.cpu.data     16732644                       # number of ReadReq accesses(hits+misses)
system.cpu.dcache.ReadReq_accesses::total     16732644                       # number of ReadReq accesses(hits+misses)
system.cpu.dcache.ReadReq_miss_rate::.cpu.data     0.000011                       # miss rate for ReadReq accesses
system.cpu.dcache.ReadReq_miss_rate::total     0.000011                       # miss rate for ReadReq accesses
system.cpu.dcache.ReadReq_avg_miss_latency::.cpu.data 60438.559322                       # average ReadReq miss latency
system.cpu.dcache.ReadReq_avg_miss_latency::total 60438.559322                       # average ReadReq miss latency
system.cpu.dcache.ReadReq_mshr_hits::.cpu.data           75                       # number of ReadReq MSHR hits
system.cpu.dcache.ReadReq_mshr_hits::total           75                       # number of ReadReq MSHR hits
system.cpu.dcache.ReadReq_mshr_misses::.cpu.data          102                       # number of ReadReq MSHR misses
system.cpu.dcache.ReadReq_mshr_misses::total          102                       # number of ReadReq MSHR misses
system.cpu.dcache.ReadReq_mshr_miss_latency::.cpu.data      6530250                       # number of ReadReq MSHR miss cycles
system.cpu.dcache.ReadReq_mshr_miss_latency::total      6530250                       # number of ReadReq MSHR miss cycles
system.cpu.dcache.ReadReq_mshr_miss_rate::.cpu.data     0.000006                       # mshr miss rate for ReadReq accesses
system.cpu.dcache.ReadReq_mshr_miss_rate::total     0.000006                       # mshr miss rate for ReadReq accesses
system.cpu.dcache.ReadReq_avg_mshr_miss_latency::.cpu.data 64022.058824                       # average ReadReq mshr miss latency
system.cpu.dcache.ReadReq_avg_mshr_miss_latency::total 64022.058824                       # average ReadReq mshr miss latency
system.cpu.dcache.WriteReq_hits::.cpu.data      8334083                       # number of WriteReq hits
system.cpu.dcache.WriteReq_hits::total        8334083                       # number of WriteReq hits
system.cpu.dcache.WriteReq_misses::.cpu.data      8332798                       # number of WriteReq misses
system.cpu.dcache.WriteReq_misses::total      8332798                       # number of WriteReq misses
system.cpu.dcache.WriteReq_miss_latency::.cpu.data 491306087875                       # number of WriteReq miss cycles
system.cpu.dcache.WriteReq_miss_latency::total 491306087875                       # number of WriteReq miss cycles
system.cpu.dcache.WriteReq_accesses::.cpu.data     16666881                       # number of WriteReq accesses(hits+misses)
system.cpu.dcache.WriteReq_accesses::total     16666881                       # number of WriteReq accesses(hits+misses)
system.cpu.dcache.WriteReq_miss_rate::.cpu.data     0.499961                       # miss rate for WriteReq accesses
system.cpu.dcache.WriteReq_miss_rate::total     0.499961                       # miss rate for WriteReq accesses
system.cpu.dcache.WriteReq_avg_miss_latency::.cpu.data 58960.518169                       # average WriteReq miss latency
system.cpu.dcache.WriteReq_avg_miss_latency::total 58960.518169                       # average WriteReq miss latency
system.cpu.dcache.WriteReq_mshr_hits::.cpu.data      7291170                       # number of WriteReq MSHR hits
system.cpu.dcache.WriteReq_mshr_hits::total      7291170                       # number of WriteReq MSHR hits
system.cpu.dcache.WriteReq_mshr_misses::.cpu.data      1041628                       # number of WriteReq MSHR misses
system.cpu.dcache.WriteReq_mshr_misses::total      1041628                       # number of WriteReq MSHR misses
system.cpu.dcache.WriteReq_mshr_miss_latency::.cpu.data  63308160625                       # number of WriteReq MSHR miss cycles
system.cpu.dcache.WriteReq_mshr_miss_latency::total  63308160625                       # number of WriteReq MSHR miss cycles
system.cpu.dcache.WriteReq_mshr_miss_rate::.cpu.data     0.062497                       # mshr miss rate for WriteReq accesses
system.cpu.dcache.WriteReq_mshr_miss_rate::total     0.062497                       # mshr miss rate for WriteReq accesses
system.cpu.dcache.WriteReq_avg_mshr_miss_latency::.cpu.data 60778.090283                       # average WriteReq mshr miss latency
system.cpu.dcache.WriteReq_avg_mshr_miss_latency::total 60778.090283                       # average WriteReq mshr miss latency
system.cpu.dcache.SoftPFReq_hits::.cpu.data           12                       # number of SoftPFReq hits
system.cpu.dcache.SoftPFReq_hits::total            12                       # number of SoftPFReq hits
system.cpu.dcache.SoftPFReq_misses::.cpu.data           12                       # number of SoftPFReq misses
system.cpu.dcache.SoftPFReq_misses::total           12                       # number of SoftPFReq misses
system.cpu.dcache.SoftPFReq_accesses::.cpu.data           24                       # number of SoftPFReq accesses(hits+misses)
system.cpu.dcache.SoftPFReq_accesses::total           24                       # number of SoftPFReq accesses(hits+misses)
system.cpu.dcache.SoftPFReq_miss_rate::.cpu.data     0.500000                       # miss rate for SoftPFReq accesses
system.cpu.dcache.SoftPFReq_miss_rate::total     0.500000                       # miss rate for SoftPFReq accesses
system.cpu.dcache.SoftPFReq_mshr_misses::.cpu.data            8                       # number of SoftPFReq MSHR misses
system.cpu.dcache.SoftPFReq_mshr_misses::total            8                       # number of SoftPFReq MSHR misses
system.cpu.dcache.SoftPFReq_mshr_miss_latency::.cpu.data       472625                       # number of SoftPFReq MSHR miss cycles
system.cpu.dcache.SoftPFReq_mshr_miss_latency::total       472625                       # number of SoftPFReq MSHR miss cycles
system.cpu.dcache.SoftPFReq_mshr_miss_rate::.cpu.data     0.333333                       # mshr miss rate for SoftPFReq accesses
system.cpu.dcache.SoftPFReq_mshr_miss_rate::total     0.333333                       # mshr miss rate for SoftPFReq accesses
system.cpu.dcache.SoftPFReq_avg_mshr_miss_latency::.cpu.data 59078.125000                       # average SoftPFReq mshr miss latency
system.cpu.dcache.SoftPFReq_avg_mshr_miss_latency::total 59078.125000                       # average SoftPFReq mshr miss latency
system.cpu.dcache.LoadLockedReq_hits::.cpu.data           35                       # number of LoadLockedReq hits
system.cpu.dcache.LoadLockedReq_hits::total           35                       # number of LoadLockedReq hits
system.cpu.dcache.LoadLockedReq_misses::.cpu.data            5                       # number of LoadLockedReq misses
system.cpu.dcache.LoadLockedReq_misses::total            5                       # number of LoadLockedReq misses
system.cpu.dcache.LoadLockedReq_miss_latency::.cpu.data       307500                       # number of LoadLockedReq miss cycles
system.cpu.dcache.LoadLockedReq_miss_latency::total       307500                       # number of LoadLockedReq miss cycles
system.cpu.dcache.LoadLockedReq_accesses::.cpu.data           40                       # number of LoadLockedReq accesses(hits+misses)
system.cpu.dcache.LoadLockedReq_accesses::total           40                       # number of LoadLockedReq accesses(hits+misses)
system.cpu.dcache.LoadLockedReq_miss_rate::.cpu.data     0.125000                       # miss rate for LoadLockedReq accesses
system.cpu.dcache.LoadLockedReq_miss_rate::total     0.125000                       # miss rate for LoadLockedReq accesses
system.cpu.dcache.LoadLockedReq_avg_miss_latency::.cpu.data        61500                       # average LoadLockedReq miss latency
system.cpu.dcache.LoadLockedReq_avg_miss_latency::total        61500                       # average LoadLockedReq miss latency
system.cpu.dcache.LoadLockedReq_mshr_hits::.cpu.data            1                       # number of LoadLockedReq MSHR hits
system.cpu.dcache.LoadLockedReq_mshr_hits::total            1                       # number of LoadLockedReq MSHR hits
system.cpu.dcache.LoadLockedReq_mshr_misses::.cpu.data            4                       # number of LoadLockedReq MSHR misses
system.cpu.dcache.LoadLockedReq_mshr_misses::total            4                       # number of LoadLockedReq MSHR misses
system.cpu.dcache.LoadLockedReq_mshr_miss_latency::.cpu.data       246625                       # number of LoadLockedReq MSHR miss cycles
system.cpu.dcache.LoadLockedReq_mshr_miss_latency::total       246625                       # number of LoadLockedReq MSHR miss cycles
system.cpu.dcache.LoadLockedReq_mshr_miss_rate::.cpu.data     0.100000                       # mshr miss rate for LoadLockedReq accesses
system.cpu.dcache.LoadLockedReq_mshr_miss_rate::total     0.100000                       # mshr miss rate for LoadLockedReq accesses
system.cpu.dcache.LoadLockedReq_avg_mshr_miss_latency::.cpu.data 61656.250000                       # average LoadLockedReq mshr miss latency
system.cpu.dcache.LoadLockedReq_avg_mshr_miss_latency::total 61656.250000                       # average LoadLockedReq mshr miss latency
system.cpu.dcache.StoreCondReq_hits::.cpu.data           36                       # number of StoreCondReq hits
system.cpu.dcache.StoreCondReq_hits::total           36                       # number of StoreCondReq hits
system.cpu.dcache.StoreCondReq_accesses::.cpu.data           36                       # number of StoreCondReq accesses(hits+misses)
system.cpu.dcache.StoreCondReq_accesses::total           36                       # number of StoreCondReq accesses(hits+misses)
system.cpu.dcache.power_state.pwrStateResidencyTicks::UNDEFINED  75083566875                       # Cumulative time (in ticks) in various power states
system.cpu.dcache.tags.tagsinuse           511.809796                       # Cycle average of tags in use
system.cpu.dcache.tags.total_refs            26108375                       # Total number of references to valid blocks.
system.cpu.dcache.tags.sampled_refs           1041742                       # Sample count of references to valid blocks.
system.cpu.dcache.tags.avg_refs             25.062227                       # Average number of references to valid blocks.
system.cpu.dcache.tags.warmup_cycle            148000                       # Cycle when the warmup percentage was hit.
system.cpu.dcache.tags.occ_blocks::.cpu.data   511.809796                       # Average occupied blocks per requestor
system.cpu.dcache.tags.occ_percent::.cpu.data     0.999629                       # Average percentage of cache occupancy
system.cpu.dcache.tags.occ_percent::total     0.999629                       # Average percentage of cache occupancy
system.cpu.dcache.tags.occ_task_id_blocks::1024          512                       # Occupied blocks per task id
system.cpu.dcache.tags.age_task_id_blocks_1024::0          135                       # Occupied blocks per task id
system.cpu.dcache.tags.age_task_id_blocks_1024::1          376                       # Occupied blocks per task id
system.cpu.dcache.tags.age_task_id_blocks_1024::4            1                       # Occupied blocks per task id
system.cpu.dcache.tags.occ_task_id_percent::1024            1                       # Percentage of cache occupancy per task id
system.cpu.dcache.tags.tag_accesses         134640242                       # Number of tag accesses
system.cpu.dcache.tags.data_accesses        134640242                       # Number of data accesses
system.cpu.dcache.tags.power_state.pwrStateResidencyTicks::UNDEFINED  75083566875                       # Cumulative time (in ticks) in various power states
system.cpu.decode.idleCycles                  3158252                       # Number of cycles decode is idle
system.cpu.decode.blockedCycles              77787706                       # Number of cycles decode is blocked
system.cpu.decode.runCycles                  34977626                       # Number of cycles decode is running
system.cpu.decode.unblockCycles               4182903                       # Number of cycles decode is unblocking
system.cpu.decode.squashCycles                   8630                       # Number of cycles decode is squashing
system.cpu.decode.branchResolved             16739698                       # Number of times decode resolved a  branch
system.cpu.decode.branchMispred                   241                       # Number of times decode detected a branch misprediction
system.cpu.decode.decodedInsts              117229969                       # Number of instructions handled by decode
system.cpu.decode.squashedInsts                 51475                       # Number of squashed instructions handled by decode
system.cpu.dtb.instHits                             0                       # ITB inst hits
system.cpu.dtb.instMisses                           0                       # ITB inst misses
system.cpu.dtb.readHits                             0                       # DTB read hits
system.cpu.dtb.readMisses                           0                       # DTB read misses
system.cpu.dtb.writeHits                            0                       # DTB write hits
system.cpu.dtb.writeMisses                          0                       # DTB write misses
system.cpu.dtb.inserts                              0                       # Number of times an entry is inserted into the TLB
system.cpu.dtb.flushTlb                             0                       # Number of times complete TLB was flushed
system.cpu.dtb.flushTlbMva                          0                       # Number of times TLB was flushed by MVA
system.cpu.dtb.flushTlbMvaAsid                      0                       # Number of times TLB was flushed by MVA & ASID
system.cpu.dtb.flushTlbAsid                         0                       # Number of times TLB was flushed by ASID
system.cpu.dtb.flushedEntries                       0                       # Number of entries that have been flushed from TLB
system.cpu.dtb.alignFaults                          0                       # Number of TLB faults due to alignment restrictions
system.cpu.dtb.prefetchFaults                       0                       # Number of TLB faults due to prefetch
system.cpu.dtb.domainFaults                         0                       # Number of TLB faults due to domain restrictions
system.cpu.dtb.permsFaults                          0                       # Number of TLB faults due to permissions restrictions
system.cpu.dtb.readAccesses                         0                       # DTB read accesses
system.cpu.dtb.writeAccesses                        0                       # DTB write accesses
system.cpu.dtb.instAccesses                         0                       # ITB inst accesses
system.cpu.dtb.hits                                 0                       # Total TLB (inst and data) hits
system.cpu.dtb.misses                               0                       # Total TLB (inst and data) misses
system.cpu.dtb.accesses                             0                       # Total TLB (inst and data) accesses
system.cpu.dtb.stage2_mmu.stage2_tlb.instHits            0                       # ITB inst hits
system.cpu.dtb.stage2_mmu.stage2_tlb.instMisses            0                       # ITB inst misses
system.cpu.dtb.stage2_mmu.stage2_tlb.readHits            0                       # DTB read hits
system.cpu.dtb.stage2_mmu.stage2_tlb.readMisses            0                       # DTB read misses
system.cpu.dtb.stage2_mmu.stage2_tlb.writeHits            0                       # DTB write hits
system.cpu.dtb.stage2_mmu.stage2_tlb.writeMisses            0                       # DTB write misses
system.cpu.dtb.stage2_mmu.stage2_tlb.inserts            0                       # Number of times an entry is inserted into the TLB
system.cpu.dtb.stage2_mmu.stage2_tlb.flushTlb            0                       # Number of times complete TLB was flushed
system.cpu.dtb.stage2_mmu.stage2_tlb.flushTlbMva            0                       # Number of times TLB was flushed by MVA
system.cpu.dtb.stage2_mmu.stage2_tlb.flushTlbMvaAsid            0                       # Number of times TLB was flushed by MVA & ASID
system.cpu.dtb.stage2_mmu.stage2_tlb.flushTlbAsid            0                       # Number of times TLB was flushed by ASID
system.cpu.dtb.stage2_mmu.stage2_tlb.flushedEntries            0                       # Number of entries that have been flushed from TLB
system.cpu.dtb.stage2_mmu.stage2_tlb.alignFaults            0                       # Number of TLB faults due to alignment restrictions
system.cpu.dtb.stage2_mmu.stage2_tlb.prefetchFaults            0                       # Number of TLB faults due to prefetch
system.cpu.dtb.stage2_mmu.stage2_tlb.domainFaults            0                       # Number of TLB faults due to domain restrictions
system.cpu.dtb.stage2_mmu.stage2_tlb.permsFaults            0                       # Number of TLB faults due to permissions restrictions
system.cpu.dtb.stage2_mmu.stage2_tlb.readAccesses            0                       # DTB read accesses
system.cpu.dtb.stage2_mmu.stage2_tlb.writeAccesses            0                       # DTB write accesses
system.cpu.dtb.stage2_mmu.stage2_tlb.instAccesses            0                       # ITB inst accesses
system.cpu.dtb.stage2_mmu.stage2_tlb.hits            0                       # Total TLB (inst and data) hits
system.cpu.dtb.stage2_mmu.stage2_tlb.misses            0                       # Total TLB (inst and data) misses
system.cpu.dtb.stage2_mmu.stage2_tlb.accesses            0                       # Total TLB (inst and data) accesses
system.cpu.dtb.stage2_mmu.stage2_tlb.walker.walks            0                       # Table walker walks requested
system.cpu.dtb.stage2_mmu.stage2_tlb.walker.requestOrigin_Requested::Data            0                       # Table walker requests started/completed, data/inst
system.cpu.dtb.stage2_mmu.stage2_tlb.walker.requestOrigin_Requested::Inst            0                       # Table walker requests started/completed, data/inst
system.cpu.dtb.stage2_mmu.stage2_tlb.walker.requestOrigin_Requested::total            0                       # Table walker requests started/completed, data/inst
system.cpu.dtb.stage2_mmu.stage2_tlb.walker.requestOrigin_Completed::Data            0                       # Table walker requests started/completed, data/inst
system.cpu.dtb.stage2_mmu.stage2_tlb.walker.requestOrigin_Completed::Inst            0                       # Table walker requests started/completed, data/inst
system.cpu.dtb.stage2_mmu.stage2_tlb.walker.requestOrigin_Completed::total            0                       # Table walker requests started/completed, data/inst
system.cpu.dtb.stage2_mmu.stage2_tlb.walker.requestOrigin::total            0                       # Table walker requests started/completed, data/inst
system.cpu.dtb.stage2_mmu.stage2_tlb.walker.power_state.pwrStateResidencyTicks::UNDEFINED  75083566875                       # Cumulative time (in ticks) in various power states
system.cpu.dtb.walker.walks                         0                       # Table walker walks requested
system.cpu.dtb.walker.requestOrigin_Requested::Data            0                       # Table walker requests started/completed, data/inst
system.cpu.dtb.walker.requestOrigin_Requested::Inst            0                       # Table walker requests started/completed, data/inst
system.cpu.dtb.walker.requestOrigin_Requested::total            0                       # Table walker requests started/completed, data/inst
system.cpu.dtb.walker.requestOrigin_Completed::Data            0                       # Table walker requests started/completed, data/inst
system.cpu.dtb.walker.requestOrigin_Completed::Inst            0                       # Table walker requests started/completed, data/inst
system.cpu.dtb.walker.requestOrigin_Completed::total            0                       # Table walker requests started/completed, data/inst
system.cpu.dtb.walker.requestOrigin::total            0                       # Table walker requests started/completed, data/inst
system.cpu.dtb.walker.power_state.pwrStateResidencyTicks::UNDEFINED  75083566875                       # Cumulative time (in ticks) in various power states
system.cpu.dtb_walker_cache.blocked_cycles::no_mshrs            0                       # number of cycles access was blocked
system.cpu.dtb_walker_cache.blocked_cycles::no_targets            0                       # number of cycles access was blocked
system.cpu.dtb_walker_cache.blocked::no_mshrs            0                       # number of cycles access was blocked
system.cpu.dtb_walker_cache.blocked::no_targets            0                       # number of cycles access was blocked
system.cpu.dtb_walker_cache.avg_blocked_cycles::no_mshrs          nan                       # average number of cycles each access was blocked
system.cpu.dtb_walker_cache.avg_blocked_cycles::no_targets          nan                       # average number of cycles each access was blocked
system.cpu.dtb_walker_cache.replacements            0                       # number of replacements
system.cpu.dtb_walker_cache.power_state.pwrStateResidencyTicks::UNDEFINED  75083566875                       # Cumulative time (in ticks) in various power states
system.cpu.dtb_walker_cache.tags.tagsinuse            0                       # Cycle average of tags in use
system.cpu.dtb_walker_cache.tags.total_refs            0                       # Total number of references to valid blocks.
system.cpu.dtb_walker_cache.tags.sampled_refs            0                       # Sample count of references to valid blocks.
system.cpu.dtb_walker_cache.tags.avg_refs          nan                       # Average number of references to valid blocks.
system.cpu.dtb_walker_cache.tags.warmup_cycle            0                       # Cycle when the warmup percentage was hit.
system.cpu.dtb_walker_cache.tags.tag_accesses            0                       # Number of tag accesses
system.cpu.dtb_walker_cache.tags.data_accesses            0                       # Number of data accesses
system.cpu.dtb_walker_cache.tags.power_state.pwrStateResidencyTicks::UNDEFINED  75083566875                       # Cumulative time (in ticks) in various power states
system.cpu.fetch.icacheStallCycles              17512                       # Number of cycles fetch is stalled on an Icache miss
system.cpu.fetch.insts                      100665668                       # Number of instructions fetch has processed
system.cpu.fetch.branches                    16775301                       # Number of branches that fetch encountered
system.cpu.fetch.predictedBranches           16772687                       # Number of branches that fetch has predicted taken
system.cpu.fetch.cycles                     120088207                       # Number of cycles fetch has run and was not squashing or blocked
system.cpu.fetch.squashCycles                   17728                       # Number of cycles fetch has spent squashing
system.cpu.fetch.miscStallCycles                  204                       # Number of cycles fetch has spent waiting on interrupts,or bad addresses, or out of MSHRs
system.cpu.fetch.icacheWaitRetryStallCycles          330                       # Number of stall cycles due to full MSHR
system.cpu.fetch.cacheLines                  33564673                       # Number of cache lines fetched
system.cpu.fetch.icacheSquashes                   254                       # Number of outstanding Icache misses that were squashed
system.cpu.fetch.nisnDist::samples          120115117                       # Number of instructions fetched each cycle (Total)
system.cpu.fetch.nisnDist::mean              0.977799                       # Number of instructions fetched each cycle (Total)
system.cpu.fetch.nisnDist::stdev             1.298662                       # Number of instructions fetched each cycle (Total)
system.cpu.fetch.nisnDist::underflows               0      0.00%      0.00% # Number of instructions fetched each cycle (Total)
system.cpu.fetch.nisnDist::0                 69438522     57.81%     57.81% # Number of instructions fetched each cycle (Total)
system.cpu.fetch.nisnDist::1                 17117674     14.25%     72.06% # Number of instructions fetched each cycle (Total)
system.cpu.fetch.nisnDist::2                   346031      0.29%     72.35% # Number of instructions fetched each cycle (Total)
system.cpu.fetch.nisnDist::3                 33212890     27.65%    100.00% # Number of instructions fetched each cycle (Total)
system.cpu.fetch.nisnDist::overflows                0      0.00%    100.00% # Number of instructions fetched each cycle (Total)
system.cpu.fetch.nisnDist::min_value                0                       # Number of instructions fetched each cycle (Total)
system.cpu.fetch.nisnDist::max_value                3                       # Number of instructions fetched each cycle (Total)
system.cpu.fetch.nisnDist::total            120115117                       # Number of instructions fetched each cycle (Total)
system.cpu.fetch.branchRate                  0.139639                       # Number of branch fetches per cycle
system.cpu.fetch.rate                        0.837947                       # Number of inst fetches per cycle
system.cpu.icache.demand_hits::.cpu.inst     33564197                       # number of demand (read+write) hits
system.cpu.icache.demand_hits::total         33564197                       # number of demand (read+write) hits
system.cpu.icache.overall_hits::.cpu.inst     33564197                       # number of overall hits
system.cpu.icache.overall_hits::total        33564197                       # number of overall hits
system.cpu.icache.demand_misses::.cpu.inst          473                       # number of demand (read+write) misses
system.cpu.icache.demand_misses::total            473                       # number of demand (read+write) misses
system.cpu.icache.overall_misses::.cpu.inst          473                       # number of overall misses
system.cpu.icache.overall_misses::total           473                       # number of overall misses
system.cpu.icache.demand_miss_latency::.cpu.inst     25635741                       # number of demand (read+write) miss cycles
system.cpu.icache.demand_miss_latency::total     25635741                       # number of demand (read+write) miss cycles
system.cpu.icache.overall_miss_latency::.cpu.inst     25635741                       # number of overall miss cycles
system.cpu.icache.overall_miss_latency::total     25635741                       # number of overall miss cycles
system.cpu.icache.demand_accesses::.cpu.inst     33564670                       # number of demand (read+write) accesses
system.cpu.icache.demand_accesses::total     33564670                       # number of demand (read+write) accesses
system.cpu.icache.overall_accesses::.cpu.inst     33564670                       # number of overall (read+write) accesses
system.cpu.icache.overall_accesses::total     33564670                       # number of overall (read+write) accesses
system.cpu.icache.demand_miss_rate::.cpu.inst     0.000014                       # miss rate for demand accesses
system.cpu.icache.demand_miss_rate::total     0.000014                       # miss rate for demand accesses
system.cpu.icache.overall_miss_rate::.cpu.inst     0.000014                       # miss rate for overall accesses
system.cpu.icache.overall_miss_rate::total     0.000014                       # miss rate for overall accesses
system.cpu.icache.demand_avg_miss_latency::.cpu.inst 54198.183932                       # average overall miss latency
system.cpu.icache.demand_avg_miss_latency::total 54198.183932                       # average overall miss latency
system.cpu.icache.overall_avg_miss_latency::.cpu.inst 54198.183932                       # average overall miss latency
system.cpu.icache.overall_avg_miss_latency::total 54198.183932                       # average overall miss latency
system.cpu.icache.blocked_cycles::no_mshrs         6300                       # number of cycles access was blocked
system.cpu.icache.blocked_cycles::no_targets            0                       # number of cycles access was blocked
system.cpu.icache.blocked::no_mshrs               103                       # number of cycles access was blocked
system.cpu.icache.blocked::no_targets               0                       # number of cycles access was blocked
system.cpu.icache.avg_blocked_cycles::no_mshrs    61.165049                       # average number of cycles each access was blocked
system.cpu.icache.avg_blocked_cycles::no_targets          nan                       # average number of cycles each access was blocked
system.cpu.icache.writebacks::.writebacks           31                       # number of writebacks
system.cpu.icache.writebacks::total                31                       # number of writebacks
system.cpu.icache.demand_mshr_hits::.cpu.inst           79                       # number of demand (read+write) MSHR hits
system.cpu.icache.demand_mshr_hits::total           79                       # number of demand (read+write) MSHR hits
system.cpu.icache.overall_mshr_hits::.cpu.inst           79                       # number of overall MSHR hits
system.cpu.icache.overall_mshr_hits::total           79                       # number of overall MSHR hits
system.cpu.icache.demand_mshr_misses::.cpu.inst          394                       # number of demand (read+write) MSHR misses
system.cpu.icache.demand_mshr_misses::total          394                       # number of demand (read+write) MSHR misses
system.cpu.icache.overall_mshr_misses::.cpu.inst          394                       # number of overall MSHR misses
system.cpu.icache.overall_mshr_misses::total          394                       # number of overall MSHR misses
system.cpu.icache.demand_mshr_miss_latency::.cpu.inst     22662118                       # number of demand (read+write) MSHR miss cycles
system.cpu.icache.demand_mshr_miss_latency::total     22662118                       # number of demand (read+write) MSHR miss cycles
system.cpu.icache.overall_mshr_miss_latency::.cpu.inst     22662118                       # number of overall MSHR miss cycles
system.cpu.icache.overall_mshr_miss_latency::total     22662118                       # number of overall MSHR miss cycles
system.cpu.icache.demand_mshr_miss_rate::.cpu.inst     0.000012                       # mshr miss rate for demand accesses
system.cpu.icache.demand_mshr_miss_rate::total     0.000012                       # mshr miss rate for demand accesses
system.cpu.icache.overall_mshr_miss_rate::.cpu.inst     0.000012                       # mshr miss rate for overall accesses
system.cpu.icache.overall_mshr_miss_rate::total     0.000012                       # mshr miss rate for overall accesses
system.cpu.icache.demand_avg_mshr_miss_latency::.cpu.inst 57518.065990                       # average overall mshr miss latency
system.cpu.icache.demand_avg_mshr_miss_latency::total 57518.065990                       # average overall mshr miss latency
system.cpu.icache.overall_avg_mshr_miss_latency::.cpu.inst 57518.065990                       # average overall mshr miss latency
system.cpu.icache.overall_avg_mshr_miss_latency::total 57518.065990                       # average overall mshr miss latency
system.cpu.icache.replacements                     31                       # number of replacements
system.cpu.icache.ReadReq_hits::.cpu.inst     33564197                       # number of ReadReq hits
system.cpu.icache.ReadReq_hits::total        33564197                       # number of ReadReq hits
system.cpu.icache.ReadReq_misses::.cpu.inst          473                       # number of ReadReq misses
system.cpu.icache.ReadReq_misses::total           473                       # number of ReadReq misses
system.cpu.icache.ReadReq_miss_latency::.cpu.inst     25635741                       # number of ReadReq miss cycles
system.cpu.icache.ReadReq_miss_latency::total     25635741                       # number of ReadReq miss cycles
system.cpu.icache.ReadReq_accesses::.cpu.inst     33564670                       # number of ReadReq accesses(hits+misses)
system.cpu.icache.ReadReq_accesses::total     33564670                       # number of ReadReq accesses(hits+misses)
system.cpu.icache.ReadReq_miss_rate::.cpu.inst     0.000014                       # miss rate for ReadReq accesses
system.cpu.icache.ReadReq_miss_rate::total     0.000014                       # miss rate for ReadReq accesses
system.cpu.icache.ReadReq_avg_miss_latency::.cpu.inst 54198.183932                       # average ReadReq miss latency
system.cpu.icache.ReadReq_avg_miss_latency::total 54198.183932                       # average ReadReq miss latency
system.cpu.icache.ReadReq_mshr_hits::.cpu.inst           79                       # number of ReadReq MSHR hits
system.cpu.icache.ReadReq_mshr_hits::total           79                       # number of ReadReq MSHR hits
system.cpu.icache.ReadReq_mshr_misses::.cpu.inst          394                       # number of ReadReq MSHR misses
system.cpu.icache.ReadReq_mshr_misses::total          394                       # number of ReadReq MSHR misses
system.cpu.icache.ReadReq_mshr_miss_latency::.cpu.inst     22662118                       # number of ReadReq MSHR miss cycles
system.cpu.icache.ReadReq_mshr_miss_latency::total     22662118                       # number of ReadReq MSHR miss cycles
system.cpu.icache.ReadReq_mshr_miss_rate::.cpu.inst     0.000012                       # mshr miss rate for ReadReq accesses
system.cpu.icache.ReadReq_mshr_miss_rate::total     0.000012                       # mshr miss rate for ReadReq accesses
system.cpu.icache.ReadReq_avg_mshr_miss_latency::.cpu.inst 57518.065990                       # average ReadReq mshr miss latency
system.cpu.icache.ReadReq_avg_mshr_miss_latency::total 57518.065990                       # average ReadReq mshr miss latency
system.cpu.icache.power_state.pwrStateResidencyTicks::UNDEFINED  75083566875                       # Cumulative time (in ticks) in various power states
system.cpu.icache.tags.tagsinuse           341.256371                       # Cycle average of tags in use
system.cpu.icache.tags.total_refs            33564591                       # Total number of references to valid blocks.
system.cpu.icache.tags.sampled_refs               394                       # Sample count of references to valid blocks.
system.cpu.icache.tags.avg_refs          85189.317259                       # Average number of references to valid blocks.
system.cpu.icache.tags.warmup_cycle             77000                       # Cycle when the warmup percentage was hit.
system.cpu.icache.tags.occ_blocks::.cpu.inst   341.256371                       # Average occupied blocks per requestor
system.cpu.icache.tags.occ_percent::.cpu.inst     0.666516                       # Average percentage of cache occupancy
system.cpu.icache.tags.occ_percent::total     0.666516                       # Average percentage of cache occupancy
system.cpu.icache.tags.occ_task_id_blocks::1024          363                       # Occupied blocks per task id
system.cpu.icache.tags.age_task_id_blocks_1024::4          363                       # Occupied blocks per task id
system.cpu.icache.tags.occ_task_id_percent::1024     0.708984                       # Percentage of cache occupancy per task id
system.cpu.icache.tags.tag_accesses         134259074                       # Number of tag accesses
system.cpu.icache.tags.data_accesses        134259074                       # Number of data accesses
system.cpu.icache.tags.power_state.pwrStateResidencyTicks::UNDEFINED  75083566875                       # Cumulative time (in ticks) in various power states
system.cpu.itb.instHits                             0                       # ITB inst hits
system.cpu.itb.instMisses                           0                       # ITB inst misses
system.cpu.itb.readHits                             0                       # DTB read hits
system.cpu.itb.readMisses                           0                       # DTB read misses
system.cpu.itb.writeHits                            0                       # DTB write hits
[...]
system.mem_ctrls.requestorReadTotalLat::.cpu.data  30063921750                       # Per-requestor read total memory access latency
system.mem_ctrls.requestorWriteTotalLat::.writebacks 1860807076125                       # Per-requestor write total memory access latency
system.mem_ctrls.requestorReadAvgLat::.cpu.inst     26194.80                       # Per-requestor read average memory access latency
system.mem_ctrls.requestorReadAvgLat::.cpu.data     28859.28                       # Per-requestor read average memory access latency
system.mem_ctrls.requestorWriteAvgLat::.writebacks   1787101.64                       # Per-requestor write average memory access latency
system.mem_ctrls.dram.bytes_read::.cpu.inst        25216                       # Number of bytes read from this memory
system.mem_ctrls.dram.bytes_read::.cpu.data     66671488                       # Number of bytes read from this memory
system.mem_ctrls.dram.bytes_read::total      66696704                       # Number of bytes read from this memory
system.mem_ctrls.dram.bytes_inst_read::.cpu.inst        25216                       # Number of instructions bytes read from this memory
system.mem_ctrls.dram.bytes_inst_read::total        25216                       # Number of instructions bytes read from this memory
system.mem_ctrls.dram.bytes_written::.writebacks     66633408                       # Number of bytes written to this memory
system.mem_ctrls.dram.bytes_written::total     66633408                       # Number of bytes written to this memory
system.mem_ctrls.dram.num_reads::.cpu.inst          394                       # Number of read requests responded to by this memory
system.mem_ctrls.dram.num_reads::.cpu.data      1041742                       # Number of read requests responded to by this memory
system.mem_ctrls.dram.num_reads::total        1042136                       # Number of read requests responded to by this memory
system.mem_ctrls.dram.num_writes::.writebacks      1041147                       # Number of write requests responded to by this memory
system.mem_ctrls.dram.num_writes::total       1041147                       # Number of write requests responded to by this memory
system.mem_ctrls.dram.bw_read::.cpu.inst       335839                       # Total read bandwidth from this memory (bytes/s)
system.mem_ctrls.dram.bw_read::.cpu.data    887963782                       # Total read bandwidth from this memory (bytes/s)
system.mem_ctrls.dram.bw_read::total        888299621                       # Total read bandwidth from this memory (bytes/s)
system.mem_ctrls.dram.bw_inst_read::.cpu.inst       335839                       # Instruction read bandwidth from this memory (bytes/s)
system.mem_ctrls.dram.bw_inst_read::total       335839                       # Instruction read bandwidth from this memory (bytes/s)
system.mem_ctrls.dram.bw_write::.writebacks    887456614                       # Write bandwidth from this memory (bytes/s)
system.mem_ctrls.dram.bw_write::total       887456614                       # Write bandwidth from this memory (bytes/s)
system.mem_ctrls.dram.bw_total::.writebacks    887456614                       # Total bandwidth to/from this memory (bytes/s)
system.mem_ctrls.dram.bw_total::.cpu.inst       335839                       # Total bandwidth to/from this memory (bytes/s)
system.mem_ctrls.dram.bw_total::.cpu.data    887963782                       # Total bandwidth to/from this memory (bytes/s)
system.mem_ctrls.dram.bw_total::total      1775756235                       # Total bandwidth to/from this memory (bytes/s)
system.mem_ctrls.dram.readBursts              1042131                       # Number of DRAM read bursts
system.mem_ctrls.dram.writeBursts             1041222                       # Number of DRAM write bursts
system.mem_ctrls.dram.perBankRdBursts::0        65239                       # Per bank write bursts
system.mem_ctrls.dram.perBankRdBursts::1        65202                       # Per bank write bursts
system.mem_ctrls.dram.perBankRdBursts::2        65160                       # Per bank write bursts
system.mem_ctrls.dram.perBankRdBursts::3        65152                       # Per bank write bursts
system.mem_ctrls.dram.perBankRdBursts::4        65152                       # Per bank write bursts
system.mem_ctrls.dram.perBankRdBursts::5        65159                       # Per bank write bursts
system.mem_ctrls.dram.perBankRdBursts::6        65180                       # Per bank write bursts
system.mem_ctrls.dram.perBankRdBursts::7        65105                       # Per bank write bursts
system.mem_ctrls.dram.perBankRdBursts::8        65039                       # Per bank write bursts
system.mem_ctrls.dram.perBankRdBursts::9        65088                       # Per bank write bursts
system.mem_ctrls.dram.perBankRdBursts::10        65063                       # Per bank write bursts
system.mem_ctrls.dram.perBankRdBursts::11        65075                       # Per bank write bursts
system.mem_ctrls.dram.perBankRdBursts::12        65045                       # Per bank write bursts
system.mem_ctrls.dram.perBankRdBursts::13        65099                       # Per bank write bursts
system.mem_ctrls.dram.perBankRdBursts::14        65204                       # Per bank write bursts
system.mem_ctrls.dram.perBankRdBursts::15        65169                       # Per bank write bursts
system.mem_ctrls.dram.perBankWrBursts::0        65163                       # Per bank write bursts
system.mem_ctrls.dram.perBankWrBursts::1        65159                       # Per bank write bursts
system.mem_ctrls.dram.perBankWrBursts::2        65152                       # Per bank write bursts
system.mem_ctrls.dram.perBankWrBursts::3        65039                       # Per bank write bursts
system.mem_ctrls.dram.perBankWrBursts::4        65024                       # Per bank write bursts
system.mem_ctrls.dram.perBankWrBursts::5        65027                       # Per bank write bursts
system.mem_ctrls.dram.perBankWrBursts::6        65026                       # Per bank write bursts
system.mem_ctrls.dram.perBankWrBursts::7        65028                       # Per bank write bursts
system.mem_ctrls.dram.perBankWrBursts::8        65024                       # Per bank write bursts
system.mem_ctrls.dram.perBankWrBursts::9        65073                       # Per bank write bursts
system.mem_ctrls.dram.perBankWrBursts::10        65051                       # Per bank write bursts
system.mem_ctrls.dram.perBankWrBursts::11        65058                       # Per bank write bursts
system.mem_ctrls.dram.perBankWrBursts::12        65035                       # Per bank write bursts
system.mem_ctrls.dram.perBankWrBursts::13        65040                       # Per bank write bursts
system.mem_ctrls.dram.perBankWrBursts::14        65168                       # Per bank write bursts
system.mem_ctrls.dram.perBankWrBursts::15        65155                       # Per bank write bursts
system.mem_ctrls.dram.totQLat             10534286250                       # Total ticks spent queuing
system.mem_ctrls.dram.totBusLat            5210655000                       # Total ticks spent in databus transfers
system.mem_ctrls.dram.totMemAccLat        30074242500                       # Total ticks spent from burst creation until serviced by the DRAM
system.mem_ctrls.dram.avgQLat                10108.41                       # Average queueing delay per DRAM burst
system.mem_ctrls.dram.avgBusLat               5000.00                       # Average bus latency per DRAM burst
system.mem_ctrls.dram.avgMemAccLat           28858.41                       # Average memory access latency per DRAM burst
system.mem_ctrls.dram.readRowHits              968960                       # Number of row buffer hits during reads
system.mem_ctrls.dram.writeRowHits             963076                       # Number of row buffer hits during writes
system.mem_ctrls.dram.readRowHitRate            92.98                       # Row buffer hit rate for reads
system.mem_ctrls.dram.writeRowHitRate           92.49                       # Row buffer hit rate for writes
system.mem_ctrls.dram.bytesPerActivate::samples       151316                       # Bytes accessed per row activation
system.mem_ctrls.dram.bytesPerActivate::mean   881.163975                       # Bytes accessed per row activation
system.mem_ctrls.dram.bytesPerActivate::gmean   750.325582                       # Bytes accessed per row activation
system.mem_ctrls.dram.bytesPerActivate::stdev   297.770004                       # Bytes accessed per row activation
system.mem_ctrls.dram.bytesPerActivate::0-127         9513      6.29%      6.29% # Bytes accessed per row activation
system.mem_ctrls.dram.bytesPerActivate::128-255         4868      3.22%      9.50% # Bytes accessed per row activation
system.mem_ctrls.dram.bytesPerActivate::256-383         3143      2.08%     11.58% # Bytes accessed per row activation
system.mem_ctrls.dram.bytesPerActivate::384-511         2347      1.55%     13.13% # Bytes accessed per row activation
system.mem_ctrls.dram.bytesPerActivate::512-639         3887      2.57%     15.70% # Bytes accessed per row activation
system.mem_ctrls.dram.bytesPerActivate::640-767         3075      2.03%     17.73% # Bytes accessed per row activation
system.mem_ctrls.dram.bytesPerActivate::768-895         4703      3.11%     20.84% # Bytes accessed per row activation
system.mem_ctrls.dram.bytesPerActivate::896-1023         5914      3.91%     24.75% # Bytes accessed per row activation
system.mem_ctrls.dram.bytesPerActivate::1024-1151       113866     75.25%    100.00% # Bytes accessed per row activation
system.mem_ctrls.dram.bytesPerActivate::total       151316                       # Bytes accessed per row activation
system.mem_ctrls.dram.bytesRead              66696384                       # Total number of bytes read from DRAM
system.mem_ctrls.dram.bytesWritten           66638208                       # Total number of bytes written to DRAM
system.mem_ctrls.dram.avgRdBW              888.295359                       # Average DRAM read bandwidth in MiBytes/s
system.mem_ctrls.dram.avgWrBW              887.520542                       # Average DRAM write bandwidth in MiBytes/s
system.mem_ctrls.dram.peakBW                 12800.00                       # Theoretical peak bandwidth in MiByte/s
system.mem_ctrls.dram.busUtil                   13.87                       # Data bus utilization in percentage
system.mem_ctrls.dram.busUtilRead                6.94                       # Data bus utilization in percentage for reads
system.mem_ctrls.dram.busUtilWrite               6.93                       # Data bus utilization in percentage for writes
system.mem_ctrls.dram.pageHitRate               92.74                       # Row buffer hit rate, read and write combined
system.mem_ctrls.dram.power_state.pwrStateResidencyTicks::UNDEFINED  75083566875                       # Cumulative time (in ticks) in various power states
system.mem_ctrls.dram.rank0.actEnergy       539755440                       # Energy for activate commands per rank (pJ)
system.mem_ctrls.dram.rank0.preEnergy       286883025                       # Energy for precharge commands per rank (pJ)
system.mem_ctrls.dram.rank0.readEnergy     3722431860                       # Energy for read commands per rank (pJ)
system.mem_ctrls.dram.rank0.writeEnergy    2717625960                       # Energy for write commands per rank (pJ)
system.mem_ctrls.dram.rank0.refreshEnergy 5926973520.000001                       # Energy for refresh commands per rank (pJ)
system.mem_ctrls.dram.rank0.actBackEnergy  23784339270                       # Energy for active background per rank (pJ)
system.mem_ctrls.dram.rank0.preBackEnergy   8803172640                       # Energy for precharge background per rank (pJ)
system.mem_ctrls.dram.rank0.actPowerDownEnergy            0                       # Energy for active power-down per rank (pJ)
system.mem_ctrls.dram.rank0.prePowerDownEnergy            0                       # Energy for precharge power-down per rank (pJ)
system.mem_ctrls.dram.rank0.selfRefreshEnergy            0                       # Energy for self refresh per rank (pJ)
system.mem_ctrls.dram.rank0.totalEnergy   45781181715                       # Total energy per rank (pJ)
system.mem_ctrls.dram.rank0.averagePower   609.736373                       # Core power per rank (mW)
system.mem_ctrls.dram.rank0.totalIdleTime            0                       # Total Idle time Per DRAM Rank
system.mem_ctrls.dram.rank0.pwrStateTime::IDLE  22381577000                       # Time in different power states
system.mem_ctrls.dram.rank0.pwrStateTime::REF   2507180000                       # Time in different power states
system.mem_ctrls.dram.rank0.pwrStateTime::SREF            0                       # Time in different power states
system.mem_ctrls.dram.rank0.pwrStateTime::PRE_PDN            0                       # Time in different power states
system.mem_ctrls.dram.rank0.pwrStateTime::ACT  50194809875                       # Time in different power states
system.mem_ctrls.dram.rank0.pwrStateTime::ACT_PDN            0                       # Time in different power states
system.mem_ctrls.dram.rank1.actEnergy       540647940                       # Energy for activate commands per rank (pJ)
system.mem_ctrls.dram.rank1.preEnergy       287361195                       # Energy for precharge commands per rank (pJ)
system.mem_ctrls.dram.rank1.readEnergy     3718383480                       # Energy for read commands per rank (pJ)
system.mem_ctrls.dram.rank1.writeEnergy    2717552880                       # Energy for write commands per rank (pJ)
system.mem_ctrls.dram.rank1.refreshEnergy 5926973520.000001                       # Energy for refresh commands per rank (pJ)
system.mem_ctrls.dram.rank1.actBackEnergy  24054261630                       # Energy for active background per rank (pJ)
system.mem_ctrls.dram.rank1.preBackEnergy   8575869600                       # Energy for precharge background per rank (pJ)
system.mem_ctrls.dram.rank1.actPowerDownEnergy            0                       # Energy for active power-down per rank (pJ)
system.mem_ctrls.dram.rank1.prePowerDownEnergy            0                       # Energy for precharge power-down per rank (pJ)
system.mem_ctrls.dram.rank1.selfRefreshEnergy            0                       # Energy for self refresh per rank (pJ)
system.mem_ctrls.dram.rank1.totalEnergy   45821050245                       # Total energy per rank (pJ)
system.mem_ctrls.dram.rank1.averagePower   610.267361                       # Core power per rank (mW)
system.mem_ctrls.dram.rank1.totalIdleTime            0                       # Total Idle time Per DRAM Rank
system.mem_ctrls.dram.rank1.pwrStateTime::IDLE  21849764125                       # Time in different power states
system.mem_ctrls.dram.rank1.pwrStateTime::REF   2507180000                       # Time in different power states
system.mem_ctrls.dram.rank1.pwrStateTime::SREF            0                       # Time in different power states
system.mem_ctrls.dram.rank1.pwrStateTime::PRE_PDN            0                       # Time in different power states
system.mem_ctrls.dram.rank1.pwrStateTime::ACT  50726622750                       # Time in different power states
system.mem_ctrls.dram.rank1.pwrStateTime::ACT_PDN            0                       # Time in different power states
system.mem_ctrls.power_state.pwrStateResidencyTicks::UNDEFINED  75083566875                       # Cumulative time (in ticks) in various power states
system.membus.trans_dist::ReadResp                508                       # Transaction distribution
system.membus.trans_dist::WritebackDirty      1041147                       # Transaction distribution
system.membus.trans_dist::WritebackClean          114                       # Transaction distribution
system.membus.trans_dist::ReadExReq           1041628                       # Transaction distribution
system.membus.trans_dist::ReadExResp          1041628                       # Transaction distribution
system.membus.trans_dist::ReadCleanReq            394                       # Transaction distribution
system.membus.trans_dist::ReadSharedReq           114                       # Transaction distribution
system.membus.pkt_count_system.cpu.icache.mem_side_port::system.mem_ctrls.port          819                       # Packet count per connected requestor and responder (bytes)
system.membus.pkt_count_system.cpu.dcache.mem_side_port::system.mem_ctrls.port      3124714                       # Packet count per connected requestor and responder (bytes)
system.membus.pkt_count::total                3125533                       # Packet count per connected requestor and responder (bytes)
system.membus.pkt_size_system.cpu.icache.mem_side_port::system.mem_ctrls.port        27200                       # Cumulative packet size per connected requestor and responder (bytes)
system.membus.pkt_size_system.cpu.dcache.mem_side_port::system.mem_ctrls.port    133310208                       # Cumulative packet size per connected requestor and responder (bytes)
system.membus.pkt_size::total               133337408                       # Cumulative packet size per connected requestor and responder (bytes)
system.membus.snoops                                0                       # Total snoops (count)
system.membus.snoopTraffic                          0                       # Total snoop traffic (bytes)
system.membus.snoop_fanout::samples           1042136                       # Request fanout histogram
system.membus.snoop_fanout::mean             0.000017                       # Request fanout histogram
system.membus.snoop_fanout::stdev            0.004156                       # Request fanout histogram
system.membus.snoop_fanout::underflows              0      0.00%      0.00% # Request fanout histogram
system.membus.snoop_fanout::0                 1042118    100.00%    100.00% # Request fanout histogram
system.membus.snoop_fanout::1                      18      0.00%    100.00% # Request fanout histogram
system.membus.snoop_fanout::2                       0      0.00%    100.00% # Request fanout histogram
system.membus.snoop_fanout::3                       0      0.00%    100.00% # Request fanout histogram
system.membus.snoop_fanout::4                       0      0.00%    100.00% # Request fanout histogram
system.membus.snoop_fanout::overflows               0      0.00%    100.00% # Request fanout histogram
system.membus.snoop_fanout::min_value               0                       # Request fanout histogram
system.membus.snoop_fanout::max_value               1                       # Request fanout histogram
system.membus.snoop_fanout::total             1042136                       # Request fanout histogram
system.membus.power_state.pwrStateResidencyTicks::UNDEFINED  75083566875                       # Cumulative time (in ticks) in various power states
system.membus.reqLayer0.occupancy          7171070500                       # Layer occupancy (ticks)
system.membus.reqLayer0.utilization               9.6                       # Layer utilization (%)
system.membus.respLayer1.occupancy            2094625                       # Layer occupancy (ticks)
system.membus.respLayer1.utilization              0.0                       # Layer utilization (%)
system.membus.respLayer2.occupancy         5498420250                       # Layer occupancy (ticks)
system.membus.respLayer2.utilization              7.3                       # Layer utilization (%)
system.voltage_domain.voltage                       1                       # Voltage in Volts

---------- End Simulation Statistics   ----------
