
---------- Begin Simulation Statistics ----------
final_tick                                51702292500                       # Number of ticks from beginning of simulation (restored from checkpoints and never reset)
host_inst_rate                                 285973                       # Simulator instruction rate (inst/s)
host_mem_usage                                 656044                       # Number of bytes of host memory used
host_op_rate                                   285979                       # Simulator op (including micro ops) rate (op/s)
host_seconds                                   349.68                       # Real time elapsed on the host
host_tick_rate                              147854552                       # Simulator tick rate (ticks/s)
sim_freq                                 1000000000000                       # Frequency of simulated ticks
sim_insts                                   100000000                       # Number of instructions simulated
sim_ops                                     100002034                       # Number of ops (including micro ops) simulated
sim_seconds                                  0.051702                       # Number of seconds simulated
sim_ticks                                 51702292500                       # Number of ticks simulated
system.cpu.cc_regfile_reads                 356188209                       # number of cc regfile reads
system.cpu.cc_regfile_writes                 42490585                       # number of cc regfile writes
system.cpu.committedInsts                   100000000                       # Number of Instructions Simulated
system.cpu.committedOps                     100002034                       # Number of Ops (including micro ops) Simulated
system.cpu.cpi                               0.827237                       # CPI: Cycles Per Instruction
system.cpu.cpi_total                         0.827237                       # CPI: Total CPI of All Threads
system.cpu.idleCycles                           23781                       # Total number of cycles that the CPU has spent unscheduled due to idling
system.cpu.iew.branchMispredicts               187798                       # Number of branch mispredicts detected at execute
system.cpu.iew.branch_mispredict_rate        3.164171                       # Percentage of branch mispredicts
system.cpu.iew.branch_percentage             5.907177                       # Percentage of branches executed
system.cpu.iew.exec_branches                  5935140                       # Number of branches executed
system.cpu.iew.exec_nop                             2                       # number of nop insts executed
system.cpu.iew.exec_rate                     1.214566                       # Inst execution rate
system.cpu.iew.exec_refs                     38855366                       # number of memory reference insts executed
system.cpu.iew.exec_stores                   18128773                       # Number of stores executed
system.cpu.iew.exec_swp                             0                       # number of swp insts executed
system.cpu.iew.iewBlockCycles                 2651307                       # Number of cycles IEW is blocking
system.cpu.iew.iewDispLoadInsts              20811535                       # Number of dispatched load instructions
system.cpu.iew.iewDispNonSpecInsts                 32                       # Number of dispatched non-speculative instructions
system.cpu.iew.iewDispSquashedInsts                 0                       # Number of squashed instructions skipped by dispatch
system.cpu.iew.iewDispStoreInsts             18312619                       # Number of dispatched store instructions
system.cpu.iew.iewDispatchedInsts           101268920                       # Number of instructions dispatched to IQ
system.cpu.iew.iewExecLoadInsts              20726593                       # Number of load instructions executed
system.cpu.iew.iewExecSquashedInsts            292955                       # Number of squashed instructions skipped in execute
system.cpu.iew.iewExecutedInsts             100473366                       # Number of executed instructions
system.cpu.iew.iewIQFullEvents                 172466                       # Number of times the IQ has become full, causing a stall
system.cpu.iew.iewIdleCycles                        0                       # Number of cycles IEW is idle
system.cpu.iew.iewLSQFullEvents                   185                       # Number of times the LSQ has become full, causing a stall
system.cpu.iew.iewSquashCycles                 194260                       # Number of cycles IEW is squashing
system.cpu.iew.iewUnblockCycles                172623                       # Number of cycles IEW is unblocking
system.cpu.iew.memOrderViolationEvents           7448                       # Number of memory order violations
system.cpu.iew.predictedNotTakenIncorrect        19663                       # Number of branches that were predicted not taken incorrectly
system.cpu.iew.predictedTakenIncorrect         168135                       # Number of branches that were predicted taken incorrectly
system.cpu.iew.wb_consumers                 148050154                       # num instructions consuming a value
system.cpu.iew.wb_count                     100424932                       # cumulative count of insts written-back
system.cpu.iew.wb_fanout                     0.487334                       # average fanout of values written-back
system.cpu.iew.wb_producers                  72149874                       # num instructions producing a value
system.cpu.iew.wb_rate                       1.213981                       # insts written-back per cycle
system.cpu.iew.wb_sent                      100426374                       # cumulative count of insts sent to commit
system.cpu.int_regfile_reads                133731987                       # number of integer regfile reads
system.cpu.int_regfile_writes                58185995                       # number of integer regfile writes
system.cpu.ipc                               1.208844                       # IPC: Instructions Per Cycle
system.cpu.ipc_total                         1.208844                       # IPC: Total IPC of All Threads
system.cpu.iq.FU_type_0::No_OpClass                 9      0.00%      0.00% # Type of FU issued
system.cpu.iq.FU_type_0::IntAlu              61785901     61.32%     61.32% # Type of FU issued
system.cpu.iq.FU_type_0::IntMult                   11      0.00%     61.32% # Type of FU issued
system.cpu.iq.FU_type_0::IntDiv                     0      0.00%     61.32% # Type of FU issued
system.cpu.iq.FU_type_0::FloatAdd                   0      0.00%     61.32% # Type of FU issued
system.cpu.iq.FU_type_0::FloatCmp                   0      0.00%     61.32% # Type of FU issued
system.cpu.iq.FU_type_0::FloatCvt                   0      0.00%     61.32% # Type of FU issued
system.cpu.iq.FU_type_0::FloatMult                  0      0.00%     61.32% # Type of FU issued
system.cpu.iq.FU_type_0::FloatMultAcc               0      0.00%     61.32% # Type of FU issued
system.cpu.iq.FU_type_0::FloatDiv                   0      0.00%     61.32% # Type of FU issued
system.cpu.iq.FU_type_0::FloatMisc                  0      0.00%     61.32% # Type of FU issued
system.cpu.iq.FU_type_0::FloatSqrt                  0      0.00%     61.32% # Type of FU issued
system.cpu.iq.FU_type_0::SimdAdd                    0      0.00%     61.32% # Type of FU issued
system.cpu.iq.FU_type_0::SimdAddAcc                 0      0.00%     61.32% # Type of FU issued
system.cpu.iq.FU_type_0::SimdAlu                    0      0.00%     61.32% # Type of FU issued
system.cpu.iq.FU_type_0::SimdCmp                    0      0.00%     61.32% # Type of FU issued
system.cpu.iq.FU_type_0::SimdCvt                    0      0.00%     61.32% # Type of FU issued
system.cpu.iq.FU_type_0::SimdMisc                   0      0.00%     61.32% # Type of FU issued
system.cpu.iq.FU_type_0::SimdMult                   0      0.00%     61.32% # Type of FU issued
system.cpu.iq.FU_type_0::SimdMultAcc                0      0.00%     61.32% # Type of FU issued
system.cpu.iq.FU_type_0::SimdShift                  0      0.00%     61.32% # Type of FU issued
system.cpu.iq.FU_type_0::SimdShiftAcc               0      0.00%     61.32% # Type of FU issued
system.cpu.iq.FU_type_0::SimdDiv                    0      0.00%     61.32% # Type of FU issued
system.cpu.iq.FU_type_0::SimdSqrt                   0      0.00%     61.32% # Type of FU issued
system.cpu.iq.FU_type_0::SimdFloatAdd               0      0.00%     61.32% # Type of FU issued
system.cpu.iq.FU_type_0::SimdFloatAlu               0      0.00%     61.32% # Type of FU issued
system.cpu.iq.FU_type_0::SimdFloatCmp               0      0.00%     61.32% # Type of FU issued
system.cpu.iq.FU_type_0::SimdFloatCvt               0      0.00%     61.32% # Type of FU issued
system.cpu.iq.FU_type_0::SimdFloatDiv               0      0.00%     61.32% # Type of FU issued
system.cpu.iq.FU_type_0::SimdFloatMisc              4      0.00%     61.32% # Type of FU issued
system.cpu.iq.FU_type_0::SimdFloatMult              0      0.00%     61.32% # Type of FU issued
system.cpu.iq.FU_type_0::SimdFloatMultAcc            0      0.00%     61.32% # Type of FU issued
system.cpu.iq.FU_type_0::SimdFloatSqrt              0      0.00%     61.32% # Type of FU issued
system.cpu.iq.FU_type_0::SimdReduceAdd              0      0.00%     61.32% # Type of FU issued
system.cpu.iq.FU_type_0::SimdReduceAlu              0      0.00%     61.32% # Type of FU issued
system.cpu.iq.FU_type_0::SimdReduceCmp              0      0.00%     61.32% # Type of FU issued
system.cpu.iq.FU_type_0::SimdFloatReduceAdd            0      0.00%     61.32% # Type of FU issued
system.cpu.iq.FU_type_0::SimdFloatReduceCmp            0      0.00%     61.32% # Type of FU issued
system.cpu.iq.FU_type_0::SimdAes                    0      0.00%     61.32% # Type of FU issued
system.cpu.iq.FU_type_0::SimdAesMix                 0      0.00%     61.32% # Type of FU issued
system.cpu.iq.FU_type_0::SimdSha1Hash               0      0.00%     61.32% # Type of FU issued
system.cpu.iq.FU_type_0::SimdSha1Hash2              0      0.00%     61.32% # Type of FU issued
system.cpu.iq.FU_type_0::SimdSha256Hash             0      0.00%     61.32% # Type of FU issued
system.cpu.iq.FU_type_0::SimdSha256Hash2            0      0.00%     61.32% # Type of FU issued
system.cpu.iq.FU_type_0::SimdShaSigma2              0      0.00%     61.32% # Type of FU issued
system.cpu.iq.FU_type_0::SimdShaSigma3              0      0.00%     61.32% # Type of FU issued
system.cpu.iq.FU_type_0::SimdPredAlu                0      0.00%     61.32% # Type of FU issued
system.cpu.iq.FU_type_0::MemRead             20788167     20.63%     81.95% # Type of FU issued
system.cpu.iq.FU_type_0::MemWrite            18192230     18.05%    100.00% # Type of FU issued
system.cpu.iq.FU_type_0::FloatMemRead               0      0.00%    100.00% # Type of FU issued
system.cpu.iq.FU_type_0::FloatMemWrite              0      0.00%    100.00% # Type of FU issued
system.cpu.iq.FU_type_0::IprAccess                  0      0.00%    100.00% # Type of FU issued
system.cpu.iq.FU_type_0::InstPrefetch               0      0.00%    100.00% # Type of FU issued
system.cpu.iq.FU_type_0::total              100766322                       # Type of FU issued
system.cpu.iq.fp_alu_accesses                       0                       # Number of floating point alu accesses
system.cpu.iq.fp_inst_queue_reads                   0                       # Number of floating instruction queue reads
system.cpu.iq.fp_inst_queue_wakeup_accesses            0                       # Number of floating instruction queue wakeup accesses
system.cpu.iq.fp_inst_queue_writes                  0                       # Number of floating instruction queue writes
system.cpu.iq.fu_busy_cnt                     5706305                       # FU busy when requested
system.cpu.iq.fu_busy_rate                   0.056629                       # FU busy rate (busy events/executed inst)
system.cpu.iq.fu_full::No_OpClass                   0      0.00%      0.00% # attempts to use FU when none available
system.cpu.iq.fu_full::IntAlu                 3184850     55.81%     55.81% # attempts to use FU when none available
system.cpu.iq.fu_full::IntMult                      0      0.00%     55.81% # attempts to use FU when none available
system.cpu.iq.fu_full::IntDiv                       0      0.00%     55.81% # attempts to use FU when none available
system.cpu.iq.fu_full::FloatAdd                     0      0.00%     55.81% # attempts to use FU when none available
system.cpu.iq.fu_full::FloatCmp                     0      0.00%     55.81% # attempts to use FU when none available
system.cpu.iq.fu_full::FloatCvt                     0      0.00%     55.81% # attempts to use FU when none available
system.cpu.iq.fu_full::FloatMult                    0      0.00%     55.81% # attempts to use FU when none available
system.cpu.iq.fu_full::FloatMultAcc                 0      0.00%     55.81% # attempts to use FU when none available
system.cpu.iq.fu_full::FloatDiv                     0      0.00%     55.81% # attempts to use FU when none available
system.cpu.iq.fu_full::FloatMisc                    0      0.00%     55.81% # attempts to use FU when none available
system.cpu.iq.fu_full::FloatSqrt                    0      0.00%     55.81% # attempts to use FU when none available
system.cpu.iq.fu_full::SimdAdd                      0      0.00%     55.81% # attempts to use FU when none available
system.cpu.iq.fu_full::SimdAddAcc                   0      0.00%     55.81% # attempts to use FU when none available
system.cpu.iq.fu_full::SimdAlu                      0      0.00%     55.81% # attempts to use FU when none available
system.cpu.iq.fu_full::SimdCmp                      0      0.00%     55.81% # attempts to use FU when none available
system.cpu.iq.fu_full::SimdCvt                      0      0.00%     55.81% # attempts to use FU when none available
system.cpu.iq.fu_full::SimdMisc                     0      0.00%     55.81% # attempts to use FU when none available
system.cpu.iq.fu_full::SimdMult                     0      0.00%     55.81% # attempts to use FU when none available
system.cpu.iq.fu_full::SimdMultAcc                  0      0.00%     55.81% # attempts to use FU when none available
system.cpu.iq.fu_full::SimdShift                    0      0.00%     55.81% # attempts to use FU when none available
system.cpu.iq.fu_full::SimdShiftAcc                 0      0.00%     55.81% # attempts to use FU when none available
system.cpu.iq.fu_full::SimdDiv                      0      0.00%     55.81% # attempts to use FU when none available
system.cpu.iq.fu_full::SimdSqrt                     0      0.00%     55.81% # attempts to use FU when none available
system.cpu.iq.fu_full::SimdFloatAdd                 0      0.00%     55.81% # attempts to use FU when none available
system.cpu.iq.fu_full::SimdFloatAlu                 0      0.00%     55.81% # attempts to use FU when none available
system.cpu.iq.fu_full::SimdFloatCmp                 0      0.00%     55.81% # attempts to use FU when none available
system.cpu.iq.fu_full::SimdFloatCvt                 0      0.00%     55.81% # attempts to use FU when none available
system.cpu.iq.fu_full::SimdFloatDiv                 0      0.00%     55.81% # attempts to use FU when none available
system.cpu.iq.fu_full::SimdFloatMisc                0      0.00%     55.81% # attempts to use FU when none available
system.cpu.iq.fu_full::SimdFloatMult                0      0.00%     55.81% # attempts to use FU when none available
system.cpu.iq.fu_full::SimdFloatMultAcc             0      0.00%     55.81% # attempts to use FU when none available
system.cpu.iq.fu_full::SimdFloatSqrt                0      0.00%     55.81% # attempts to use FU when none available
system.cpu.iq.fu_full::SimdReduceAdd                0      0.00%     55.81% # attempts to use FU when none available
system.cpu.iq.fu_full::SimdReduceAlu                0      0.00%     55.81% # attempts to use FU when none available
system.cpu.iq.fu_full::SimdReduceCmp                0      0.00%     55.81% # attempts to use FU when none available
system.cpu.iq.fu_full::SimdFloatReduceAdd            0      0.00%     55.81% # attempts to use FU when none available
system.cpu.iq.fu_full::SimdFloatReduceCmp            0      0.00%     55.81% # attempts to use FU when none available
system.cpu.iq.fu_full::SimdAes                      0      0.00%     55.81% # attempts to use FU when none available
system.cpu.iq.fu_full::SimdAesMix                   0      0.00%     55.81% # attempts to use FU when none available
system.cpu.iq.fu_full::SimdSha1Hash                 0      0.00%     55.81% # attempts to use FU when none available
system.cpu.iq.fu_full::SimdSha1Hash2                0      0.00%     55.81% # attempts to use FU when none available
system.cpu.iq.fu_full::SimdSha256Hash               0      0.00%     55.81% # attempts to use FU when none available
system.cpu.iq.fu_full::SimdSha256Hash2              0      0.00%     55.81% # attempts to use FU when none available
system.cpu.iq.fu_full::SimdShaSigma2                0      0.00%     55.81% # attempts to use FU when none available
system.cpu.iq.fu_full::SimdShaSigma3                0      0.00%     55.81% # attempts to use FU when none available
system.cpu.iq.fu_full::SimdPredAlu                  0      0.00%     55.81% # attempts to use FU when none available
system.cpu.iq.fu_full::MemRead                1938138     33.96%     89.78% # attempts to use FU when none available
system.cpu.iq.fu_full::MemWrite                583317     10.22%    100.00% # attempts to use FU when none available
system.cpu.iq.fu_full::FloatMemRead                 0      0.00%    100.00% # attempts to use FU when none available
system.cpu.iq.fu_full::FloatMemWrite                0      0.00%    100.00% # attempts to use FU when none available
system.cpu.iq.fu_full::IprAccess                    0      0.00%    100.00% # attempts to use FU when none available
system.cpu.iq.fu_full::InstPrefetch                 0      0.00%    100.00% # attempts to use FU when none available
system.cpu.iq.int_alu_accesses              106472618                       # Number of integer alu accesses
system.cpu.iq.int_inst_queue_reads          289968399                       # Number of integer instruction queue reads
system.cpu.iq.int_inst_queue_wakeup_accesses    100424932                       # Number of integer instruction queue wakeup accesses
system.cpu.iq.int_inst_queue_writes         102543235                       # Number of integer instruction queue writes
system.cpu.iq.iqInstsAdded                  101268866                       # Number of instructions added to the IQ (excludes non-spec)
system.cpu.iq.iqInstsIssued                 100766322                       # Number of instructions issued
system.cpu.iq.iqNonSpecInstsAdded                  52                       # Number of non-speculative instructions added to the IQ
system.cpu.iq.iqSquashedInstsExamined         1266869                       # Number of squashed instructions iterated over during squash; mainly for profiling
system.cpu.iq.iqSquashedInstsIssued             29563                       # Number of squashed instructions issued
system.cpu.iq.iqSquashedNonSpecRemoved              2                       # Number of squashed non-spec instructions that were removed
system.cpu.iq.iqSquashedOperandsExamined      3314212                       # Number of squashed operands that are examined and possibly removed from graph
system.cpu.iq.issued_per_cycle::samples      82699888                       # Number of insts issued each cycle
system.cpu.iq.issued_per_cycle::mean         1.218458                       # Number of insts issued each cycle
system.cpu.iq.issued_per_cycle::stdev        0.891779                       # Number of insts issued each cycle
system.cpu.iq.issued_per_cycle::underflows            0      0.00%      0.00% # Number of insts issued each cycle
system.cpu.iq.issued_per_cycle::0            18197097     22.00%     22.00% # Number of insts issued each cycle
system.cpu.iq.issued_per_cycle::1            35586450     43.03%     65.03% # Number of insts issued each cycle
system.cpu.iq.issued_per_cycle::2            21849355     26.42%     91.45% # Number of insts issued each cycle
system.cpu.iq.issued_per_cycle::3             6786782      8.21%     99.66% # Number of insts issued each cycle
system.cpu.iq.issued_per_cycle::4              280204      0.34%    100.00% # Number of insts issued each cycle
system.cpu.iq.issued_per_cycle::5                   0      0.00%    100.00% # Number of insts issued each cycle
system.cpu.iq.issued_per_cycle::6                   0      0.00%    100.00% # Number of insts issued each cycle
system.cpu.iq.issued_per_cycle::7                   0      0.00%    100.00% # Number of insts issued each cycle
system.cpu.iq.issued_per_cycle::8                   0      0.00%    100.00% # Number of insts issued each cycle
system.cpu.iq.issued_per_cycle::overflows            0      0.00%    100.00% # Number of insts issued each cycle
system.cpu.iq.issued_per_cycle::min_value            0                       # Number of insts issued each cycle
system.cpu.iq.issued_per_cycle::max_value            4                       # Number of insts issued each cycle
system.cpu.iq.issued_per_cycle::total        82699888                       # Number of insts issued each cycle
system.cpu.iq.rate                           1.218108                       # Inst issue rate
system.cpu.iq.vec_alu_accesses                      0                       # Number of vector alu accesses
system.cpu.iq.vec_inst_queue_reads                  0                       # Number of vector instruction queue reads
system.cpu.iq.vec_inst_queue_wakeup_accesses            0                       # Number of vector instruction queue wakeup accesses
system.cpu.iq.vec_inst_queue_writes                 0                       # Number of vector instruction queue writes
system.cpu.memDep0.conflictingLoads          11408611                       # Number of conflicting loads.
system.cpu.memDep0.conflictingStores          4210700                       # Number of conflicting stores.
system.cpu.memDep0.insertedLoads             20811535                       # Number of loads inserted to the mem dependence unit.
system.cpu.memDep0.insertedStores            18312619                       # Number of stores inserted to the mem dependence unit.
system.cpu.misc_regfile_reads               264959902                       # number of misc regfile reads
system.cpu.misc_regfile_writes                     78                       # number of misc regfile writes
system.cpu.numCycles                         82723669                       # number of cpu cycles simulated
system.cpu.numWorkItemsCompleted                    0                       # number of work items this cpu completed
system.cpu.numWorkItemsStarted                      0                       # number of work items this cpu started
system.cpu.timesIdled                             362                       # Number of times that the entire CPU went into an idle state and unscheduled itself
system.cpu.vec_regfile_reads                       32                       # number of vector regfile reads
system.cpu.workload.numSyscalls                    10                       # Number of system calls
system.membus.snoop_filter.hit_multi_requests            9                       # Number of requests hitting in the snoop filter with multiple (>1) holders of the requested data.
system.membus.snoop_filter.hit_multi_snoops            0                       # Number of snoops hitting in the snoop filter with multiple (>1) holders of the requested data.
system.membus.snoop_filter.hit_single_requests           89                       # Number of requests hitting in the snoop filter with a single holder of the requested data.
system.membus.snoop_filter.hit_single_snoops            0                       # Number of snoops hitting in the snoop filter with a single holder of the requested data.
system.membus.snoop_filter.tot_requests           814                       # Total number of requests made to the snoop filter.
system.membus.snoop_filter.tot_snoops               0                       # Total number of snoops made to the snoop filter.
system.clk_domain.clock                          1000                       # Clock period in ticks
system.cpu.branchPred.lookups                 6407296                       # Number of BP lookups
system.cpu.branchPred.condPredicted           4146813                       # Number of conditional branches predicted
system.cpu.branchPred.condIncorrect            187976                       # Number of conditional branches incorrect
system.cpu.branchPred.BTBLookups              4201665                       # Number of BTB lookups
system.cpu.branchPred.BTBHits                 4201065                       # Number of BTB hits
system.cpu.branchPred.BTBHitPct             99.985720                       # BTB Hit Percentage
system.cpu.branchPred.RASUsed                  687580                       # Number of times the RAS was used to get a target.
system.cpu.branchPred.RASIncorrect                 59                       # Number of incorrect RAS predictions.
system.cpu.branchPred.indirectLookups             233                       # Number of indirect predictor lookups.
system.cpu.branchPred.indirectHits                 23                       # Number of indirect target hits.
system.cpu.branchPred.indirectMisses              210                       # Number of indirect misses.
system.cpu.branchPred.indirectMispredicted           63                       # Number of mispredicted indirect branches.
system.cpu.commit.commitSquashedInsts          888443                       # The number of squashed insts skipped by commit
system.cpu.commit.commitNonSpecStalls              50                       # The number of times commit has been forced to stall to communicate backwards
system.cpu.commit.branchMispredicts            187712                       # The number of times a branch was mispredicted
system.cpu.commit.numCommittedDist::samples     82480453                       # Number of insts commited each cycle
system.cpu.commit.numCommittedDist::mean     1.212433                       # Number of insts commited each cycle
system.cpu.commit.numCommittedDist::stdev     1.935964                       # Number of insts commited each cycle
system.cpu.commit.numCommittedDist::underflows            0      0.00%      0.00% # Number of insts commited each cycle
system.cpu.commit.numCommittedDist::0        32626592     39.56%     39.56% # Number of insts commited each cycle
system.cpu.commit.numCommittedDist::1        38271161     46.40%     85.96% # Number of insts commited each cycle
system.cpu.commit.numCommittedDist::2          577280      0.70%     86.66% # Number of insts commited each cycle
system.cpu.commit.numCommittedDist::3         3960463      4.80%     91.46% # Number of insts commited each cycle
system.cpu.commit.numCommittedDist::4         1049114      1.27%     92.73% # Number of insts commited each cycle
system.cpu.commit.numCommittedDist::5          846136      1.03%     93.76% # Number of insts commited each cycle
system.cpu.commit.numCommittedDist::6          291062      0.35%     94.11% # Number of insts commited each cycle
system.cpu.commit.numCommittedDist::7          347744      0.42%     94.53% # Number of insts commited each cycle
system.cpu.commit.numCommittedDist::8         4510901      5.47%    100.00% # Number of insts commited each cycle
system.cpu.commit.numCommittedDist::overflows            0      0.00%    100.00% # Number of insts commited each cycle
system.cpu.commit.numCommittedDist::min_value            0                       # Number of insts commited each cycle
system.cpu.commit.numCommittedDist::max_value            8                       # Number of insts commited each cycle
system.cpu.commit.numCommittedDist::total     82480453                       # Number of insts commited each cycle
system.cpu.commit.instsCommitted            100000000                       # Number of instructions committed
system.cpu.commit.opsCommitted              100002034                       # Number of ops (including micro ops) committed
system.cpu.commit.memRefs                    38769614                       # Number of memory references committed
system.cpu.commit.loads                      20659429                       # Number of loads committed
system.cpu.commit.amos                              0                       # Number of atomic instructions committed
system.cpu.commit.membars                          20                       # Number of memory barriers committed
system.cpu.commit.branches                    5915733                       # Number of branches committed
system.cpu.commit.vector                            0                       # Number of committed Vector instructions.
system.cpu.commit.floating                          0                       # Number of committed floating point instructions.
system.cpu.commit.integer                    95453224                       # Number of committed integer instructions.
system.cpu.commit.functionCalls                683421                       # Number of function calls committed.
system.cpu.commit.committedInstType_0::No_OpClass            0      0.00%      0.00% # Class of committed instruction
system.cpu.commit.committedInstType_0::IntAlu     61232406     61.23%     61.23% # Class of committed instruction
system.cpu.commit.committedInstType_0::IntMult           10      0.00%     61.23% # Class of committed instruction
system.cpu.commit.committedInstType_0::IntDiv            0      0.00%     61.23% # Class of committed instruction
system.cpu.commit.committedInstType_0::FloatAdd            0      0.00%     61.23% # Class of committed instruction
system.cpu.commit.committedInstType_0::FloatCmp            0      0.00%     61.23% # Class of committed instruction
system.cpu.commit.committedInstType_0::FloatCvt            0      0.00%     61.23% # Class of committed instruction
system.cpu.commit.committedInstType_0::FloatMult            0      0.00%     61.23% # Class of committed instruction
system.cpu.commit.committedInstType_0::FloatMultAcc            0      0.00%     61.23% # Class of committed instruction
system.cpu.commit.committedInstType_0::FloatDiv            0      0.00%     61.23% # Class of committed instruction
system.cpu.commit.committedInstType_0::FloatMisc            0      0.00%     61.23% # Class of committed instruction
system.cpu.commit.committedInstType_0::FloatSqrt            0      0.00%     61.23% # Class of committed instruction
system.cpu.commit.committedInstType_0::SimdAdd            0      0.00%     61.23% # Class of committed instruction
system.cpu.commit.committedInstType_0::SimdAddAcc            0      0.00%     61.23% # Class of committed instruction
system.cpu.commit.committedInstType_0::SimdAlu            0      0.00%     61.23% # Class of committed instruction
system.cpu.commit.committedInstType_0::SimdCmp            0      0.00%     61.23% # Class of committed instruction
system.cpu.commit.committedInstType_0::SimdCvt            0      0.00%     61.23% # Class of committed instruction
system.cpu.commit.committedInstType_0::SimdMisc            0      0.00%     61.23% # Class of committed instruction
system.cpu.commit.committedInstType_0::SimdMult            0      0.00%     61.23% # Class of committed instruction
system.cpu.commit.committedInstType_0::SimdMultAcc            0      0.00%     61.23% # Class of committed instruction
system.cpu.commit.committedInstType_0::SimdShift            0      0.00%     61.23% # Class of committed instruction
system.cpu.commit.committedInstType_0::SimdShiftAcc            0      0.00%     61.23% # Class of committed instruction
system.cpu.commit.committedInstType_0::SimdDiv            0      0.00%     61.23% # Class of committed instruction
system.cpu.commit.committedInstType_0::SimdSqrt            0      0.00%     61.23% # Class of committed instruction
system.cpu.commit.committedInstType_0::SimdFloatAdd            0      0.00%     61.23% # Class of committed instruction
system.cpu.commit.committedInstType_0::SimdFloatAlu            0      0.00%     61.23% # Class of committed instruction
system.cpu.commit.committedInstType_0::SimdFloatCmp            0      0.00%     61.23% # Class of committed instruction
system.cpu.commit.committedInstType_0::SimdFloatCvt            0      0.00%     61.23% # Class of committed instruction
system.cpu.commit.committedInstType_0::SimdFloatDiv            0      0.00%     61.23% # Class of committed instruction
system.cpu.commit.committedInstType_0::SimdFloatMisc            4      0.00%     61.23% # Class of committed instruction
system.cpu.commit.committedInstType_0::SimdFloatMult            0      0.00%     61.23% # Class of committed instruction
system.cpu.commit.committedInstType_0::SimdFloatMultAcc            0      0.00%     61.23% # Class of committed instruction
system.cpu.commit.committedInstType_0::SimdFloatSqrt            0      0.00%     61.23% # Class of committed instruction
system.cpu.commit.committedInstType_0::SimdReduceAdd            0      0.00%     61.23% # Class of committed instruction
system.cpu.commit.committedInstType_0::SimdReduceAlu            0      0.00%     61.23% # Class of committed instruction
system.cpu.commit.committedInstType_0::SimdReduceCmp            0      0.00%     61.23% # Class of committed instruction
system.cpu.commit.committedInstType_0::SimdFloatReduceAdd            0      0.00%     61.23% # Class of committed instruction
system.cpu.commit.committedInstType_0::SimdFloatReduceCmp            0      0.00%     61.23% # Class of committed instruction
system.cpu.commit.committedInstType_0::SimdAes            0      0.00%     61.23% # Class of committed instruction
system.cpu.commit.committedInstType_0::SimdAesMix            0      0.00%     61.23% # Class of committed instruction
system.cpu.commit.committedInstType_0::SimdSha1Hash            0      0.00%     61.23% # Class of committed instruction
system.cpu.commit.committedInstType_0::SimdSha1Hash2            0      0.00%     61.23% # Class of committed instruction
system.cpu.commit.committedInstType_0::SimdSha256Hash            0      0.00%     61.23% # Class of committed instruction
system.cpu.commit.committedInstType_0::SimdSha256Hash2            0      0.00%     61.23% # Class of committed instruction
system.cpu.commit.committedInstType_0::SimdShaSigma2            0      0.00%     61.23% # Class of committed instruction
system.cpu.commit.committedInstType_0::SimdShaSigma3            0      0.00%     61.23% # Class of committed instruction
system.cpu.commit.committedInstType_0::SimdPredAlu            0      0.00%     61.23% # Class of committed instruction
system.cpu.commit.committedInstType_0::MemRead     20659429     20.66%     81.89% # Class of committed instruction
system.cpu.commit.committedInstType_0::MemWrite     18110185     18.11%    100.00% # Class of committed instruction
system.cpu.commit.committedInstType_0::FloatMemRead            0      0.00%    100.00% # Class of committed instruction
system.cpu.commit.committedInstType_0::FloatMemWrite            0      0.00%    100.00% # Class of committed instruction
system.cpu.commit.committedInstType_0::IprAccess            0      0.00%    100.00% # Class of committed instruction
system.cpu.commit.committedInstType_0::InstPrefetch            0      0.00%    100.00% # Class of committed instruction
system.cpu.commit.committedInstType_0::total    100002034                       # Class of committed instruction
system.cpu.commit.commitEligibleSamples       4510901                       # number cycles where commit BW limit reached
system.cpu.dcache.demand_hits::.cpu.data     20289655                       # number of demand (read+write) hits
system.cpu.dcache.demand_hits::total         20289655                       # number of demand (read+write) hits
system.cpu.dcache.overall_hits::.cpu.data     20289655                       # number of overall hits
system.cpu.dcache.overall_hits::total        20289655                       # number of overall hits
system.cpu.dcache.demand_misses::.cpu.data          880                       # number of demand (read+write) misses
system.cpu.dcache.demand_misses::total            880                       # number of demand (read+write) misses
system.cpu.dcache.overall_misses::.cpu.data          880                       # number of overall misses
system.cpu.dcache.overall_misses::total           880                       # number of overall misses
system.cpu.dcache.demand_miss_latency::.cpu.data     45908999                       # number of demand (read+write) miss cycles
system.cpu.dcache.demand_miss_latency::total     45908999                       # number of demand (read+write) miss cycles
system.cpu.dcache.overall_miss_latency::.cpu.data     45908999                       # number of overall miss cycles
system.cpu.dcache.overall_miss_latency::total     45908999                       # number of overall miss cycles
system.cpu.dcache.demand_accesses::.cpu.data     20290535                       # number of demand (read+write) accesses
system.cpu.dcache.demand_accesses::total     20290535                       # number of demand (read+write) accesses
system.cpu.dcache.overall_accesses::.cpu.data     20290535                       # number of overall (read+write) accesses
system.cpu.dcache.overall_accesses::total     20290535                       # number of overall (read+write) accesses
system.cpu.dcache.demand_miss_rate::.cpu.data     0.000043                       # miss rate for demand accesses
system.cpu.dcache.demand_miss_rate::total     0.000043                       # miss rate for demand accesses
system.cpu.dcache.overall_miss_rate::.cpu.data     0.000043                       # miss rate for overall accesses
system.cpu.dcache.overall_miss_rate::total     0.000043                       # miss rate for overall accesses
system.cpu.dcache.demand_avg_miss_latency::.cpu.data 52169.317045                       # average overall miss latency
system.cpu.dcache.demand_avg_miss_latency::total 52169.317045                       # average overall miss latency
system.cpu.dcache.overall_avg_miss_latency::.cpu.data 52169.317045                       # average overall miss latency
system.cpu.dcache.overall_avg_miss_latency::total 52169.317045                       # average overall miss latency
system.cpu.dcache.blocked_cycles::no_mshrs          126                       # number of cycles access was blocked
system.cpu.dcache.blocked_cycles::no_targets         2159                       # number of cycles access was blocked
system.cpu.dcache.blocked::no_mshrs                 4                       # number of cycles access was blocked
system.cpu.dcache.blocked::no_targets              45                       # number of cycles access was blocked
system.cpu.dcache.avg_blocked_cycles::no_mshrs    31.500000                       # average number of cycles each access was blocked
system.cpu.dcache.avg_blocked_cycles::no_targets    47.977778                       # average number of cycles each access was blocked
system.cpu.dcache.writebacks::.writebacks            3                       # number of writebacks
system.cpu.dcache.writebacks::total                 3                       # number of writebacks
system.cpu.dcache.demand_mshr_hits::.cpu.data          625                       # number of demand (read+write) MSHR hits
system.cpu.dcache.demand_mshr_hits::total          625                       # number of demand (read+write) MSHR hits
system.cpu.dcache.overall_mshr_hits::.cpu.data          625                       # number of overall MSHR hits
system.cpu.dcache.overall_mshr_hits::total          625                       # number of overall MSHR hits
system.cpu.dcache.demand_mshr_misses::.cpu.data          255                       # number of demand (read+write) MSHR misses
system.cpu.dcache.demand_mshr_misses::total          255                       # number of demand (read+write) MSHR misses
system.cpu.dcache.overall_mshr_misses::.cpu.data          255                       # number of overall MSHR misses
system.cpu.dcache.overall_mshr_misses::total          255                       # number of overall MSHR misses
system.cpu.dcache.demand_mshr_miss_latency::.cpu.data     15577874                       # number of demand (read+write) MSHR miss cycles
system.cpu.dcache.demand_mshr_miss_latency::total     15577874                       # number of demand (read+write) MSHR miss cycles
system.cpu.dcache.overall_mshr_miss_latency::.cpu.data     15577874                       # number of overall MSHR miss cycles
system.cpu.dcache.overall_mshr_miss_latency::total     15577874                       # number of overall MSHR miss cycles
system.cpu.dcache.demand_mshr_miss_rate::.cpu.data     0.000013                       # mshr miss rate for demand accesses
system.cpu.dcache.demand_mshr_miss_rate::total     0.000013                       # mshr miss rate for demand accesses
system.cpu.dcache.overall_mshr_miss_rate::.cpu.data     0.000013                       # mshr miss rate for overall accesses
system.cpu.dcache.overall_mshr_miss_rate::total     0.000013                       # mshr miss rate for overall accesses
system.cpu.dcache.demand_avg_mshr_miss_latency::.cpu.data 61089.701961                       # average overall mshr miss latency
system.cpu.dcache.demand_avg_mshr_miss_latency::total 61089.701961                       # average overall mshr miss latency
system.cpu.dcache.overall_avg_mshr_miss_latency::.cpu.data 61089.701961                       # average overall mshr miss latency
system.cpu.dcache.overall_avg_mshr_miss_latency::total 61089.701961                       # average overall mshr miss latency
system.cpu.dcache.replacements                      3                       # number of replacements
system.cpu.dcache.ReadReq_hits::.cpu.data     11893763                       # number of ReadReq hits
system.cpu.dcache.ReadReq_hits::total        11893763                       # number of ReadReq hits
system.cpu.dcache.ReadReq_misses::.cpu.data          307                       # number of ReadReq misses
system.cpu.dcache.ReadReq_misses::total           307                       # number of ReadReq misses
system.cpu.dcache.ReadReq_miss_latency::.cpu.data     16631375                       # number of ReadReq miss cycles
system.cpu.dcache.ReadReq_miss_latency::total     16631375                       # number of ReadReq miss cycles
system.cpu.dcache.ReadReq_accesses::.cpu.data     11894070                       # number of ReadReq accesses(hits+misses)
system.cpu.dcache.ReadReq_accesses::total     11894070                       # number of ReadReq accesses(hits+misses)
system.cpu.dcache.ReadReq_miss_rate::.cpu.data     0.000026                       # miss rate for ReadReq accesses
system.cpu.dcache.ReadReq_miss_rate::total     0.000026                       # miss rate for ReadReq accesses
system.cpu.dcache.ReadReq_avg_miss_latency::.cpu.data 54173.859935                       # average ReadReq miss latency
system.cpu.dcache.ReadReq_avg_miss_latency::total 54173.859935                       # average ReadReq miss latency
system.cpu.dcache.ReadReq_mshr_hits::.cpu.data          173                       # number of ReadReq MSHR hits
system.cpu.dcache.ReadReq_mshr_hits::total          173                       # number of ReadReq MSHR hits
system.cpu.dcache.ReadReq_mshr_misses::.cpu.data          134                       # number of ReadReq MSHR misses
system.cpu.dcache.ReadReq_mshr_misses::total          134                       # number of ReadReq MSHR misses
system.cpu.dcache.ReadReq_mshr_miss_latency::.cpu.data      8277375                       # number of ReadReq MSHR miss cycles
system.cpu.dcache.ReadReq_mshr_miss_latency::total      8277375                       # number of ReadReq MSHR miss cycles
system.cpu.dcache.ReadReq_mshr_miss_rate::.cpu.data     0.000011                       # mshr miss rate for ReadReq accesses
system.cpu.dcache.ReadReq_mshr_miss_rate::total     0.000011                       # mshr miss rate for ReadReq accesses
system.cpu.dcache.ReadReq_avg_mshr_miss_latency::.cpu.data 61771.455224                       # average ReadReq mshr miss latency
system.cpu.dcache.ReadReq_avg_mshr_miss_latency::total 61771.455224                       # average ReadReq mshr miss latency
system.cpu.dcache.WriteReq_hits::.cpu.data      8395892                       # number of WriteReq hits
system.cpu.dcache.WriteReq_hits::total        8395892                       # number of WriteReq hits
system.cpu.dcache.WriteReq_misses::.cpu.data          573                       # number of WriteReq misses
system.cpu.dcache.WriteReq_misses::total          573                       # number of WriteReq misses
system.cpu.dcache.WriteReq_miss_latency::.cpu.data     29277624                       # number of WriteReq miss cycles
system.cpu.dcache.WriteReq_miss_latency::total     29277624                       # number of WriteReq miss cycles
system.cpu.dcache.WriteReq_accesses::.cpu.data      8396465                       # number of WriteReq accesses(hits+misses)
system.cpu.dcache.WriteReq_accesses::total      8396465                       # number of WriteReq accesses(hits+misses)
system.cpu.dcache.WriteReq_miss_rate::.cpu.data     0.000068                       # miss rate for WriteReq accesses
system.cpu.dcache.WriteReq_miss_rate::total     0.000068                       # miss rate for WriteReq accesses
system.cpu.dcache.WriteReq_avg_miss_latency::.cpu.data 51095.329843                       # average WriteReq miss latency
system.cpu.dcache.WriteReq_avg_miss_latency::total 51095.329843                       # average WriteReq miss latency
system.cpu.dcache.WriteReq_mshr_hits::.cpu.data          452                       # number of WriteReq MSHR hits
system.cpu.dcache.WriteReq_mshr_hits::total          452                       # number of WriteReq MSHR hits
system.cpu.dcache.WriteReq_mshr_misses::.cpu.data          121                       # number of WriteReq MSHR misses
system.cpu.dcache.WriteReq_mshr_misses::total          121                       # number of WriteReq MSHR misses
system.cpu.dcache.WriteReq_mshr_miss_latency::.cpu.data      7300499                       # number of WriteReq MSHR miss cycles
system.cpu.dcache.WriteReq_mshr_miss_latency::total      7300499                       # number of WriteReq MSHR miss cycles
system.cpu.dcache.WriteReq_mshr_miss_rate::.cpu.data     0.000014                       # mshr miss rate for WriteReq accesses
system.cpu.dcache.WriteReq_mshr_miss_rate::total     0.000014                       # mshr miss rate for WriteReq accesses
system.cpu.dcache.WriteReq_avg_mshr_miss_latency::.cpu.data 60334.702479                       # average WriteReq mshr miss latency
system.cpu.dcache.WriteReq_avg_mshr_miss_latency::total 60334.702479                       # average WriteReq mshr miss latency
system.cpu.dcache.LoadLockedReq_hits::.cpu.data           17                       # number of LoadLockedReq hits
system.cpu.dcache.LoadLockedReq_hits::total           17                       # number of LoadLockedReq hits
system.cpu.dcache.LoadLockedReq_misses::.cpu.data            2                       # number of LoadLockedReq misses
system.cpu.dcache.LoadLockedReq_misses::total            2                       # number of LoadLockedReq misses
system.cpu.dcache.LoadLockedReq_miss_latency::.cpu.data       114375                       # number of LoadLockedReq miss cycles
system.cpu.dcache.LoadLockedReq_miss_latency::total       114375                       # number of LoadLockedReq miss cycles
system.cpu.dcache.LoadLockedReq_accesses::.cpu.data           19                       # number of LoadLockedReq accesses(hits+misses)
system.cpu.dcache.LoadLockedReq_accesses::total           19                       # number of LoadLockedReq accesses(hits+misses)
system.cpu.dcache.LoadLockedReq_miss_rate::.cpu.data     0.105263                       # miss rate for LoadLockedReq accesses
system.cpu.dcache.LoadLockedReq_miss_rate::total     0.105263                       # miss rate for LoadLockedReq accesses
system.cpu.dcache.LoadLockedReq_avg_miss_latency::.cpu.data 57187.500000                       # average LoadLockedReq miss latency
system.cpu.dcache.LoadLockedReq_avg_miss_latency::total 57187.500000                       # average LoadLockedReq miss latency
system.cpu.dcache.LoadLockedReq_mshr_hits::.cpu.data            2                       # number of LoadLockedReq MSHR hits
system.cpu.dcache.LoadLockedReq_mshr_hits::total            2                       # number of LoadLockedReq MSHR hits
system.cpu.dcache.StoreCondReq_hits::.cpu.data           19                       # number of StoreCondReq hits
system.cpu.dcache.StoreCondReq_hits::total           19                       # number of StoreCondReq hits
system.cpu.dcache.StoreCondReq_accesses::.cpu.data           19                       # number of StoreCondReq accesses(hits+misses)
system.cpu.dcache.StoreCondReq_accesses::total           19                       # number of StoreCondReq accesses(hits+misses)
system.cpu.dcache.power_state.pwrStateResidencyTicks::UNDEFINED  51702292500                       # Cumulative time (in ticks) in various power states
system.cpu.dcache.tags.tagsinuse           251.910218                       # Cycle average of tags in use
system.cpu.dcache.tags.total_refs            20289946                       # Total number of references to valid blocks.
system.cpu.dcache.tags.sampled_refs               255                       # Sample count of references to valid blocks.
system.cpu.dcache.tags.avg_refs          79568.415686                       # Average number of references to valid blocks.
system.cpu.dcache.tags.warmup_cycle            149000                       # Cycle when the warmup percentage was hit.
system.cpu.dcache.tags.occ_blocks::.cpu.data   251.910218                       # Average occupied blocks per requestor
system.cpu.dcache.tags.occ_percent::.cpu.data     0.492012                       # Average percentage of cache occupancy
system.cpu.dcache.tags.occ_percent::total     0.492012                       # Average percentage of cache occupancy
system.cpu.dcache.tags.occ_task_id_blocks::1024          252                       # Occupied blocks per task id
system.cpu.dcache.tags.age_task_id_blocks_1024::4          252                       # Occupied blocks per task id
system.cpu.dcache.tags.occ_task_id_percent::1024     0.492188                       # Percentage of cache occupancy per task id
system.cpu.dcache.tags.tag_accesses          81162547                       # Number of tag accesses
system.cpu.dcache.tags.data_accesses         81162547                       # Number of data accesses
system.cpu.dcache.tags.power_state.pwrStateResidencyTicks::UNDEFINED  51702292500                       # Cumulative time (in ticks) in various power states
system.cpu.decode.idleCycles                  6749658                       # Number of cycles decode is idle
system.cpu.decode.blockedCycles              37390642                       # Number of cycles decode is blocked
system.cpu.decode.runCycles                  28235110                       # Number of cycles decode is running
system.cpu.decode.unblockCycles              10130218                       # Number of cycles decode is unblocking
system.cpu.decode.squashCycles                 194260                       # Number of cycles decode is squashing
system.cpu.decode.branchResolved              4075038                       # Number of times decode resolved a  branch
system.cpu.decode.branchMispred                   296                       # Number of times decode detected a branch misprediction
system.cpu.decode.decodedInsts              102633955                       # Number of instructions handled by decode
system.cpu.decode.squashedInsts                827176                       # Number of squashed instructions handled by decode
system.cpu.dtb.instHits                             0                       # ITB inst hits
system.cpu.dtb.instMisses                           0                       # ITB inst misses
system.cpu.dtb.readHits                             0                       # DTB read hits
system.cpu.dtb.readMisses                           0                       # DTB read misses
system.cpu.dtb.writeHits                            0                       # DTB write hits
system.cpu.dtb.writeMisses                          0                       # DTB write misses
system.cpu.dtb.inserts                              0                       # Number of times an entry is inserted into the TLB
system.cpu.dtb.flushTlb                             0                       # Number of times complete TLB was flushed
system.cpu.dtb.flushTlbMva                          0                       # Number of times TLB was flushed by MVA
system.cpu.dtb.flushTlbMvaAsid                      0                       # Number of times TLB was flushed by MVA & ASID
system.cpu.dtb.flushTlbAsid                         0                       # Number of times TLB was flushed by ASID
system.cpu.dtb.flushedEntries                       0                       # Number of entries that have been flushed from TLB
system.cpu.dtb.alignFaults                          0                       # Number of TLB faults due to alignment restrictions
system.cpu.dtb.prefetchFaults                       0                       # Number of TLB faults due to prefetch
system.cpu.dtb.domainFaults                         0                       # Number of TLB faults due to domain restrictions
system.cpu.dtb.permsFaults                          0                       # Number of TLB faults due to permissions restrictions
system.cpu.dtb.readAccesses                         0                       # DTB read accesses
system.cpu.dtb.writeAccesses                        0                       # DTB write accesses
system.cpu.dtb.instAccesses                         0                       # ITB inst accesses
system.cpu.dtb.hits                                 0                       # Total TLB (inst and data) hits
system.cpu.dtb.misses                               0                       # Total TLB (inst and data) misses
system.cpu.dtb.accesses                             0                       # Total TLB (inst and data) accesses
system.cpu.dtb.stage2_mmu.stage2_tlb.instHits            0                       # ITB inst hits
system.cpu.dtb.stage2_mmu.stage2_tlb.instMisses            0                       # ITB inst misses
system.cpu.dtb.stage2_mmu.stage2_tlb.readHits            0                       # DTB read hits
system.cpu.dtb.stage2_mmu.stage2_tlb.readMisses            0                       # DTB read misses
system.cpu.dtb.stage2_mmu.stage2_tlb.writeHits            0                       # DTB write hits
system.cpu.dtb.stage2_mmu.stage2_tlb.writeMisses            0                       # DTB write misses
system.cpu.dtb.stage2_mmu.stage2_tlb.inserts            0                       # Number of times an entry is inserted into the TLB
system.cpu.dtb.stage2_mmu.stage2_tlb.flushTlb            0                       # Number of times complete TLB was flushed
system.cpu.dtb.stage2_mmu.stage2_tlb.flushTlbMva            0                       # Number of times TLB was flushed by MVA
system.cpu.dtb.stage2_mmu.stage2_tlb.flushTlbMvaAsid            0                       # Number of times TLB was flushed by MVA & ASID
system.cpu.dtb.stage2_mmu.stage2_tlb.flushTlbAsid            0                       # Number of times TLB was flushed by ASID
system.cpu.dtb.stage2_mmu.stage2_tlb.flushedEntries            0                       # Number of entries that have been flushed from TLB
system.cpu.dtb.stage2_mmu.stage2_tlb.alignFaults            0                       # Number of TLB faults due to alignment restrictions
system.cpu.dtb.stage2_mmu.stage2_tlb.prefetchFaults            0                       # Number of TLB faults due to prefetch
system.cpu.dtb.stage2_mmu.stage2_tlb.domainFaults            0                       # Number of TLB faults due to domain restrictions
system.cpu.dtb.stage2_mmu.stage2_tlb.permsFaults            0                       # Number of TLB faults due to permissions restrictions
system.cpu.dtb.stage2_mmu.stage2_tlb.readAccesses            0                       # DTB read accesses
system.cpu.dtb.stage2_mmu.stage2_tlb.writeAccesses            0                       # DTB write accesses
system.cpu.dtb.stage2_mmu.stage2_tlb.instAccesses            0                       # ITB inst accesses
system.cpu.dtb.stage2_mmu.stage2_tlb.hits            0                       # Total TLB (inst and data) hits
system.cpu.dtb.stage2_mmu.stage2_tlb.misses            0                       # Total TLB (inst and data) misses
system.cpu.dtb.stage2_mmu.stage2_tlb.accesses            0                       # Total TLB (inst and data) accesses
system.cpu.dtb.stage2_mmu.stage2_tlb.walker.walks            0                       # Table walker walks requested
system.cpu.dtb.stage2_mmu.stage2_tlb.walker.requestOrigin_Requested::Data            0                       # Table walker requests started/completed, data/inst
system.cpu.dtb.stage2_mmu.stage2_tlb.walker.requestOrigin_Requested::Inst            0                       # Table walker requests started/completed, data/inst
system.cpu.dtb.stage2_mmu.stage2_tlb.walker.requestOrigin_Requested::total            0                       # Table walker requests started/completed, data/inst
system.cpu.dtb.stage2_mmu.stage2_tlb.walker.requestOrigin_Completed::Data            0                       # Table walker requests started/completed, data/inst
system.cpu.dtb.stage2_mmu.stage2_tlb.walker.requestOrigin_Completed::Inst            0                       # Table walker requests started/completed, data/inst
system.cpu.dtb.stage2_mmu.stage2_tlb.walker.requestOrigin_Completed::total            0                       # Table walker requests started/completed, data/inst
system.cpu.dtb.stage2_mmu.stage2_tlb.walker.requestOrigin::total            0                       # Table walker requests started/completed, data/inst
system.cpu.dtb.stage2_mmu.stage2_tlb.walker.power_state.pwrStateResidencyTicks::UNDEFINED  51702292500                       # Cumulative time (in ticks) in various power states
system.cpu.dtb.walker.walks                         0                       # Table walker walks requested
system.cpu.dtb.walker.requestOrigin_Requested::Data            0                       # Table walker requests started/completed, data/inst
system.cpu.dtb.walker.requestOrigin_Requested::Inst            0                       # Table walker requests started/completed, data/inst
system.cpu.dtb.walker.requestOrigin_Requested::total            0                       # Table walker requests started/completed, data/inst
system.cpu.dtb.walker.requestOrigin_Completed::Data            0                       # Table walker requests started/completed, data/inst
system.cpu.dtb.walker.requestOrigin_Completed::Inst            0                       # Table walker requests started/completed, data/inst
system.cpu.dtb.walker.requestOrigin_Completed::total            0                       # Table walker requests started/completed, data/inst
system.cpu.dtb.walker.requestOrigin::total            0                       # Table walker requests started/completed, data/inst
system.cpu.dtb.walker.power_state.pwrStateResidencyTicks::UNDEFINED  51702292500                       # Cumulative time (in ticks) in various power states
system.cpu.dtb_walker_cache.blocked_cycles::no_mshrs            0                       # number of cycles access was blocked
system.cpu.dtb_walker_cache.blocked_cycles::no_targets            0                       # number of cycles access was blocked
system.cpu.dtb_walker_cache.blocked::no_mshrs            0                       # number of cycles access was blocked
system.cpu.dtb_walker_cache.blocked::no_targets            0                       # number of cycles access was blocked
system.cpu.dtb_walker_cache.avg_blocked_cycles::no_mshrs          nan                       # average number of cycles each access was blocked
system.cpu.dtb_walker_cache.avg_blocked_cycles::no_targets          nan                       # average number of cycles each access was blocked
system.cpu.dtb_walker_cache.replacements            0                       # number of replacements
system.cpu.dtb_walker_cache.power_state.pwrStateResidencyTicks::UNDEFINED  51702292500                       # Cumulative time (in ticks) in various power states
system.cpu.dtb_walker_cache.tags.tagsinuse            0                       # Cycle average of tags in use
system.cpu.dtb_walker_cache.tags.total_refs            0                       # Total number of references to valid blocks.
system.cpu.dtb_walker_cache.tags.sampled_refs            0                       # Sample count of references to valid blocks.
system.cpu.dtb_walker_cache.tags.avg_refs          nan                       # Average number of references to valid blocks.
system.cpu.dtb_walker_cache.tags.warmup_cycle            0                       # Cycle when the warmup percentage was hit.
system.cpu.dtb_walker_cache.tags.tag_accesses            0                       # Number of tag accesses
system.cpu.dtb_walker_cache.tags.data_accesses            0                       # Number of data accesses
system.cpu.dtb_walker_cache.tags.power_state.pwrStateResidencyTicks::UNDEFINED  51702292500                       # Cumulative time (in ticks) in various power states
system.cpu.fetch.icacheStallCycles             187189                       # Number of cycles fetch is stalled on an Icache miss
system.cpu.fetch.insts                      107744936                       # Number of instructions fetch has processed
system.cpu.fetch.branches                     6407296                       # Number of branches that fetch encountered
system.cpu.fetch.predictedBranches            4888668                       # Number of branches that fetch has predicted taken
system.cpu.fetch.cycles                      82317435                       # Number of cycles fetch has run and was not squashing or blocked
system.cpu.fetch.squashCycles                  389060                       # Number of cycles fetch has spent squashing
system.cpu.fetch.miscStallCycles                  196                       # Number of cycles fetch has spent waiting on interrupts,or bad addresses, or out of MSHRs
system.cpu.fetch.pendingTrapStallCycles           131                       # Number of stall cycles due to pending traps
system.cpu.fetch.icacheWaitRetryStallCycles          407                       # Number of stall cycles due to full MSHR
system.cpu.fetch.cacheLines                  30427276                       # Number of cache lines fetched
system.cpu.fetch.icacheSquashes                   360                       # Number of outstanding Icache misses that were squashed
system.cpu.fetch.nisnDist::samples           82699888                       # Number of instructions fetched each cycle (Total)
system.cpu.fetch.nisnDist::mean              1.302890                       # Number of instructions fetched each cycle (Total)
system.cpu.fetch.nisnDist::stdev             1.229486                       # Number of instructions fetched each cycle (Total)
system.cpu.fetch.nisnDist::underflows               0      0.00%      0.00% # Number of instructions fetched each cycle (Total)
system.cpu.fetch.nisnDist::0                 29283555     35.41%     35.41% # Number of instructions fetched each cycle (Total)
system.cpu.fetch.nisnDist::1                 23575336     28.51%     63.92% # Number of instructions fetched each cycle (Total)
system.cpu.fetch.nisnDist::2                  5349469      6.47%     70.39% # Number of instructions fetched each cycle (Total)
system.cpu.fetch.nisnDist::3                 24491528     29.61%    100.00% # Number of instructions fetched each cycle (Total)
system.cpu.fetch.nisnDist::overflows                0      0.00%    100.00% # Number of instructions fetched each cycle (Total)
system.cpu.fetch.nisnDist::min_value                0                       # Number of instructions fetched each cycle (Total)
system.cpu.fetch.nisnDist::max_value                3                       # Number of instructions fetched each cycle (Total)
system.cpu.fetch.nisnDist::total             82699888                       # Number of instructions fetched each cycle (Total)
system.cpu.fetch.branchRate                  0.077454                       # Number of branch fetches per cycle
system.cpu.fetch.rate                        1.302468                       # Number of inst fetches per cycle
system.cpu.icache.demand_hits::.cpu.inst     30426634                       # number of demand (read+write) hits
system.cpu.icache.demand_hits::total         30426634                       # number of demand (read+write) hits
system.cpu.icache.overall_hits::.cpu.inst     30426634                       # number of overall hits
system.cpu.icache.overall_hits::total        30426634                       # number of overall hits
system.cpu.icache.demand_misses::.cpu.inst          637                       # number of demand (read+write) misses
system.cpu.icache.demand_misses::total            637                       # number of demand (read+write) misses
system.cpu.icache.overall_misses::.cpu.inst          637                       # number of overall misses
system.cpu.icache.overall_misses::total           637                       # number of overall misses
system.cpu.icache.demand_miss_latency::.cpu.inst     34123868                       # number of demand (read+write) miss cycles
system.cpu.icache.demand_miss_latency::total     34123868                       # number of demand (read+write) miss cycles
system.cpu.icache.overall_miss_latency::.cpu.inst     34123868                       # number of overall miss cycles
system.cpu.icache.overall_miss_latency::total     34123868                       # number of overall miss cycles
system.cpu.icache.demand_accesses::.cpu.inst     30427271                       # number of demand (read+write) accesses
system.cpu.icache.demand_accesses::total     30427271                       # number of demand (read+write) accesses
system.cpu.icache.overall_accesses::.cpu.inst     30427271                       # number of overall (read+write) accesses
system.cpu.icache.overall_accesses::total     30427271                       # number of overall (read+write) accesses
system.cpu.icache.demand_miss_rate::.cpu.inst     0.000021                       # miss rate for demand accesses
system.cpu.icache.demand_miss_rate::total     0.000021                       # miss rate for demand accesses
system.cpu.icache.overall_miss_rate::.cpu.inst     0.000021                       # miss rate for overall accesses
system.cpu.icache.overall_miss_rate::total     0.000021                       # miss rate for overall accesses
system.cpu.icache.demand_avg_miss_latency::.cpu.inst 53569.651491                       # average overall miss latency
system.cpu.icache.demand_avg_miss_latency::total 53569.651491                       # average overall miss latency
system.cpu.icache.overall_avg_miss_latency::.cpu.inst 53569.651491                       # average overall miss latency
system.cpu.icache.overall_avg_miss_latency::total 53569.651491                       # average overall miss latency
system.cpu.icache.blocked_cycles::no_mshrs         8427                       # number of cycles access was blocked
system.cpu.icache.blocked_cycles::no_targets            0                       # number of cycles access was blocked
system.cpu.icache.blocked::no_mshrs               127                       # number of cycles access was blocked
system.cpu.icache.blocked::no_targets               0                       # number of cycles access was blocked
system.cpu.icache.avg_blocked_cycles::no_mshrs    66.354331                       # average number of cycles each access was blocked
system.cpu.icache.avg_blocked_cycles::no_targets          nan                       # average number of cycles each access was blocked
system.cpu.icache.writebacks::.writebacks           60                       # number of writebacks
system.cpu.icache.writebacks::total                60                       # number of writebacks
system.cpu.icache.demand_mshr_hits::.cpu.inst          141                       # number of demand (read+write) MSHR hits
system.cpu.icache.demand_mshr_hits::total          141                       # number of demand (read+write) MSHR hits
system.cpu.icache.overall_mshr_hits::.cpu.inst          141                       # number of overall MSHR hits
system.cpu.icache.overall_mshr_hits::total          141                       # number of overall MSHR hits
system.cpu.icache.demand_mshr_misses::.cpu.inst          496                       # number of demand (read+write) MSHR misses
system.cpu.icache.demand_mshr_misses::total          496                       # number of demand (read+write) MSHR misses
system.cpu.icache.overall_mshr_misses::.cpu.inst          496                       # number of overall MSHR misses
system.cpu.icache.overall_mshr_misses::total          496                       # number of overall MSHR misses
system.cpu.icache.demand_mshr_miss_latency::.cpu.inst     29161495                       # number of demand (read+write) MSHR miss cycles
system.cpu.icache.demand_mshr_miss_latency::total     29161495                       # number of demand (read+write) MSHR miss cycles
system.cpu.icache.overall_mshr_miss_latency::.cpu.inst     29161495                       # number of overall MSHR miss cycles
system.cpu.icache.overall_mshr_miss_latency::total     29161495                       # number of overall MSHR miss cycles
system.cpu.icache.demand_mshr_miss_rate::.cpu.inst     0.000016                       # mshr miss rate for demand accesses
system.cpu.icache.demand_mshr_miss_rate::total     0.000016                       # mshr miss rate for demand accesses
system.cpu.icache.overall_mshr_miss_rate::.cpu.inst     0.000016                       # mshr miss rate for overall accesses
system.cpu.icache.overall_mshr_miss_rate::total     0.000016                       # mshr miss rate for overall accesses
system.cpu.icache.demand_avg_mshr_miss_latency::.cpu.inst 58793.336694                       # average overall mshr miss latency
system.cpu.icache.demand_avg_mshr_miss_latency::total 58793.336694                       # average overall mshr miss latency
system.cpu.icache.overall_avg_mshr_miss_latency::.cpu.inst 58793.336694                       # average overall mshr miss latency
system.cpu.icache.overall_avg_mshr_miss_latency::total 58793.336694                       # average overall mshr miss latency
system.cpu.icache.replacements                     60                       # number of replacements
system.cpu.icache.ReadReq_hits::.cpu.inst     30426634                       # number of ReadReq hits
system.cpu.icache.ReadReq_hits::total        30426634                       # number of ReadReq hits
system.cpu.icache.ReadReq_misses::.cpu.inst          637                       # number of ReadReq misses
system.cpu.icache.ReadReq_misses::total           637                       # number of ReadReq misses
system.cpu.icache.ReadReq_miss_latency::.cpu.inst     34123868                       # number of ReadReq miss cycles
system.cpu.icache.ReadReq_miss_latency::total     34123868                       # number of ReadReq miss cycles
system.cpu.icache.ReadReq_accesses::.cpu.inst     30427271                       # number of ReadReq accesses(hits+misses)
system.cpu.icache.ReadReq_accesses::total     30427271                       # number of ReadReq accesses(hits+misses)
system.cpu.icache.ReadReq_miss_rate::.cpu.inst     0.000021                       # miss rate for ReadReq accesses
system.cpu.icache.ReadReq_miss_rate::total     0.000021                       # miss rate for ReadReq accesses
system.cpu.icache.ReadReq_avg_miss_latency::.cpu.inst 53569.651491                       # average ReadReq miss latency
system.cpu.icache.ReadReq_avg_miss_latency::total 53569.651491                       # average ReadReq miss latency
system.cpu.icache.ReadReq_mshr_hits::.cpu.inst          141                       # number of ReadReq MSHR hits
system.cpu.icache.ReadReq_mshr_hits::total          141                       # number of ReadReq MSHR hits
system.cpu.icache.ReadReq_mshr_misses::.cpu.inst          496                       # number of ReadReq MSHR misses
system.cpu.icache.ReadReq_mshr_misses::total          496                       # number of ReadReq MSHR misses
system.cpu.icache.ReadReq_mshr_miss_latency::.cpu.inst     29161495                       # number of ReadReq MSHR miss cycles
system.cpu.icache.ReadReq_mshr_miss_latency::total     29161495                       # number of ReadReq MSHR miss cycles
system.cpu.icache.ReadReq_mshr_miss_rate::.cpu.inst     0.000016                       # mshr miss rate for ReadReq accesses
system.cpu.icache.ReadReq_mshr_miss_rate::total     0.000016                       # mshr miss rate for ReadReq accesses
system.cpu.icache.ReadReq_avg_mshr_miss_latency::.cpu.inst 58793.336694                       # average ReadReq mshr miss latency
system.cpu.icache.ReadReq_avg_mshr_miss_latency::total 58793.336694                       # average ReadReq mshr miss latency
system.cpu.icache.power_state.pwrStateResidencyTicks::UNDEFINED  51702292500                       # Cumulative time (in ticks) in various power states
system.cpu.icache.tags.tagsinuse           435.789324                       # Cycle average of tags in use
system.cpu.icache.tags.total_refs            30427130                       # Total number of references to valid blocks.
system.cpu.icache.tags.sampled_refs               496                       # Sample count of references to valid blocks.
system.cpu.icache.tags.avg_refs          61345.020161                       # Average number of references to valid blocks.
system.cpu.icache.tags.warmup_cycle             77000                       # Cycle when the warmup percentage was hit.
system.cpu.icache.tags.occ_blocks::.cpu.inst   435.789324                       # Average occupied blocks per requestor
system.cpu.icache.tags.occ_percent::.cpu.inst     0.851151                       # Average percentage of cache occupancy
system.cpu.icache.tags.occ_percent::total     0.851151                       # Average percentage of cache occupancy
system.cpu.icache.tags.occ_task_id_blocks::1024          436                       # Occupied blocks per task id
system.cpu.icache.tags.age_task_id_blocks_1024::4          436                       # Occupied blocks per task id
system.cpu.icache.tags.occ_task_id_percent::1024     0.851562                       # Percentage of cache occupancy per task id
system.cpu.icache.tags.tag_accesses         121709580                       # Number of tag accesses
system.cpu.icache.tags.data_accesses        121709580                       # Number of data accesses
system.cpu.icache.tags.power_state.pwrStateResidencyTicks::UNDEFINED  51702292500                       # Cumulative time (in ticks) in various power states
system.cpu.itb.instHits                             0                       # ITB inst hits
system.cpu.itb.instMisses                           0                       # ITB inst misses
system.cpu.itb.readHits                             0                       # DTB read hits
system.cpu.itb.readMisses                           0                       # DTB read misses
system.cpu.itb.writeHits                            0                       # DTB write hits
system.cpu.itb.writeMisses                          0                       # DTB write misses
system.cpu.itb.inserts                              0                       # Number of times an entry is inserted into the TLB
system.cpu.itb.flushTlb                             0                       # Number of times complete TLB was flushed
system.cpu.itb.flushTlbMva                          0                       # Number of times TLB was flushed by MVA
system.cpu.itb.flushTlbMvaAsid                      0                       # Number of times TLB was flushed by MVA & ASID
system.cpu.itb.flushTlbAsid                         0                       # Number of times TLB was flushed by ASID
system.cpu.itb.flushedEntries                       0                       # Number of entries that have been flushed from TLB
system.cpu.itb.alignFaults                          0                       # Number of TLB faults due to alignment restrictions
system.cpu.itb.prefetchFaults                       0                       # Number of TLB faults due to prefetch
system.cpu.itb.domainFaults                         0                       # Number of TLB faults due to domain restrictions
system.cpu.itb.permsFaults                          0                       # Number of TLB faults due to permissions restrictions
system.cpu.itb.readAccesses                         0                       # DTB read accesses
system.cpu.itb.writeAccesses                        0                       # DTB write accesses
system.cpu.itb.instAccesses                         0                       # ITB inst accesses
system.cpu.itb.hits                                 0                       # Total TLB (inst and data) hits
system.cpu.itb.misses                               0                       # Total TLB (inst and data) misses
system.cpu.itb.accesses                             0                       # Total TLB (inst and data) accesses
system.cpu.itb.stage2_mmu.stage2_tlb.instHits            0                       # ITB inst hits
system.cpu.itb.stage2_mmu.stage2_tlb.instMisses            0                       # ITB inst misses
system.cpu.itb.stage2_mmu.stage2_tlb.readHits            0                       # DTB read hits
system.cpu.itb.stage2_mmu.stage2_tlb.readMisses            0                       # DTB read misses
system.cpu.itb.stage2_mmu.stage2_tlb.writeHits            0                       # DTB write hits
system.cpu.itb.stage2_mmu.stage2_tlb.writeMisses            0                       # DTB write misses
system.cpu.itb.stage2_mmu.stage2_tlb.inserts            0                       # Number of times an entry is inserted into the TLB
system.cpu.itb.stage2_mmu.stage2_tlb.flushTlb            0                       # Number of times complete TLB was flushed
system.cpu.itb.stage2_mmu.stage2_tlb.flushTlbMva            0                       # Number of times TLB was flushed by MVA
system.cpu.itb.stage2_mmu.stage2_tlb.flushTlbMvaAsid            0                       # Number of times TLB was flushed by MVA & ASID
system.cpu.itb.stage2_mmu.stage2_tlb.flushTlbAsid            0                       # Number of times TLB was flushed by ASID
[...]
system.mem_ctrls.requestorWriteBytes::.writebacks         2048                       # Per-requestor bytes write to memory
system.mem_ctrls.requestorReadRate::.cpu.inst 613976.643298747367                       # Per-requestor bytes read from memory rate (Bytes/sec)
system.mem_ctrls.requestorReadRate::.cpu.data 315653.314599154401                       # Per-requestor bytes read from memory rate (Bytes/sec)
system.mem_ctrls.requestorWriteRate::.writebacks 39611.396341854670                       # Per-requestor bytes write to memory rate (Bytes/sec)
system.mem_ctrls.requestorReadAccesses::.cpu.inst          496                       # Per-requestor read serviced memory accesses
system.mem_ctrls.requestorReadAccesses::.cpu.data          255                       # Per-requestor read serviced memory accesses
system.mem_ctrls.requestorWriteAccesses::.writebacks           54                       # Per-requestor write serviced memory accesses
system.mem_ctrls.requestorReadTotalLat::.cpu.inst     13576625                       # Per-requestor read total memory access latency
system.mem_ctrls.requestorReadTotalLat::.cpu.data      7351250                       # Per-requestor read total memory access latency
system.mem_ctrls.requestorWriteTotalLat::.writebacks    462491375                       # Per-requestor write total memory access latency
system.mem_ctrls.requestorReadAvgLat::.cpu.inst     27372.23                       # Per-requestor read average memory access latency
system.mem_ctrls.requestorReadAvgLat::.cpu.data     28828.43                       # Per-requestor read average memory access latency
system.mem_ctrls.requestorWriteAvgLat::.writebacks   8564655.09                       # Per-requestor write average memory access latency
system.mem_ctrls.dram.bytes_read::.cpu.inst        31744                       # Number of bytes read from this memory
system.mem_ctrls.dram.bytes_read::.cpu.data        16320                       # Number of bytes read from this memory
system.mem_ctrls.dram.bytes_read::total         48064                       # Number of bytes read from this memory
system.mem_ctrls.dram.bytes_inst_read::.cpu.inst        31744                       # Number of instructions bytes read from this memory
system.mem_ctrls.dram.bytes_inst_read::total        31744                       # Number of instructions bytes read from this memory
system.mem_ctrls.dram.num_reads::.cpu.inst          496                       # Number of read requests responded to by this memory
system.mem_ctrls.dram.num_reads::.cpu.data          255                       # Number of read requests responded to by this memory
system.mem_ctrls.dram.num_reads::total            751                       # Number of read requests responded to by this memory
system.mem_ctrls.dram.bw_read::.cpu.inst       613977                       # Total read bandwidth from this memory (bytes/s)
system.mem_ctrls.dram.bw_read::.cpu.data       315653                       # Total read bandwidth from this memory (bytes/s)
system.mem_ctrls.dram.bw_read::total           929630                       # Total read bandwidth from this memory (bytes/s)
system.mem_ctrls.dram.bw_inst_read::.cpu.inst       613977                       # Instruction read bandwidth from this memory (bytes/s)
system.mem_ctrls.dram.bw_inst_read::total       613977                       # Instruction read bandwidth from this memory (bytes/s)
system.mem_ctrls.dram.bw_total::.cpu.inst       613977                       # Total bandwidth to/from this memory (bytes/s)
system.mem_ctrls.dram.bw_total::.cpu.data       315653                       # Total bandwidth to/from this memory (bytes/s)
system.mem_ctrls.dram.bw_total::total          929630                       # Total bandwidth to/from this memory (bytes/s)
system.mem_ctrls.dram.readBursts                  751                       # Number of DRAM read bursts
system.mem_ctrls.dram.writeBursts                  32                       # Number of DRAM write bursts
system.mem_ctrls.dram.perBankRdBursts::0           81                       # Per bank write bursts
system.mem_ctrls.dram.perBankRdBursts::1           24                       # Per bank write bursts
system.mem_ctrls.dram.perBankRdBursts::2           70                       # Per bank write bursts
system.mem_ctrls.dram.perBankRdBursts::3           29                       # Per bank write bursts
system.mem_ctrls.dram.perBankRdBursts::4           80                       # Per bank write bursts
system.mem_ctrls.dram.perBankRdBursts::5           59                       # Per bank write bursts
system.mem_ctrls.dram.perBankRdBursts::6           45                       # Per bank write bursts
system.mem_ctrls.dram.perBankRdBursts::7           55                       # Per bank write bursts
system.mem_ctrls.dram.perBankRdBursts::8           98                       # Per bank write bursts
system.mem_ctrls.dram.perBankRdBursts::9           60                       # Per bank write bursts
system.mem_ctrls.dram.perBankRdBursts::10           31                       # Per bank write bursts
system.mem_ctrls.dram.perBankRdBursts::11           29                       # Per bank write bursts
system.mem_ctrls.dram.perBankRdBursts::12           63                       # Per bank write bursts
system.mem_ctrls.dram.perBankRdBursts::13            0                       # Per bank write bursts
system.mem_ctrls.dram.perBankRdBursts::14            9                       # Per bank write bursts
system.mem_ctrls.dram.perBankRdBursts::15           18                       # Per bank write bursts
system.mem_ctrls.dram.perBankWrBursts::0            0                       # Per bank write bursts
system.mem_ctrls.dram.perBankWrBursts::1            0                       # Per bank write bursts
system.mem_ctrls.dram.perBankWrBursts::2            0                       # Per bank write bursts
system.mem_ctrls.dram.perBankWrBursts::3            0                       # Per bank write bursts
system.mem_ctrls.dram.perBankWrBursts::4            1                       # Per bank write bursts
system.mem_ctrls.dram.perBankWrBursts::5            0                       # Per bank write bursts
system.mem_ctrls.dram.perBankWrBursts::6            0                       # Per bank write bursts
system.mem_ctrls.dram.perBankWrBursts::7            0                       # Per bank write bursts
system.mem_ctrls.dram.perBankWrBursts::8            9                       # Per bank write bursts
system.mem_ctrls.dram.perBankWrBursts::9            2                       # Per bank write bursts
system.mem_ctrls.dram.perBankWrBursts::10            0                       # Per bank write bursts
system.mem_ctrls.dram.perBankWrBursts::11            2                       # Per bank write bursts
system.mem_ctrls.dram.perBankWrBursts::12            9                       # Per bank write bursts
system.mem_ctrls.dram.perBankWrBursts::13            0                       # Per bank write bursts
system.mem_ctrls.dram.perBankWrBursts::14            4                       # Per bank write bursts
system.mem_ctrls.dram.perBankWrBursts::15            5                       # Per bank write bursts
system.mem_ctrls.dram.totQLat                 6846625                       # Total ticks spent queuing
system.mem_ctrls.dram.totBusLat               3755000                       # Total ticks spent in databus transfers
system.mem_ctrls.dram.totMemAccLat           20927875                       # Total ticks spent from burst creation until serviced by the DRAM
system.mem_ctrls.dram.avgQLat                 9116.68                       # Average queueing delay per DRAM burst
system.mem_ctrls.dram.avgBusLat               5000.00                       # Average bus latency per DRAM burst
system.mem_ctrls.dram.avgMemAccLat           27866.68                       # Average memory access latency per DRAM burst
system.mem_ctrls.dram.readRowHits                 601                       # Number of row buffer hits during reads
system.mem_ctrls.dram.writeRowHits                 23                       # Number of row buffer hits during writes
system.mem_ctrls.dram.readRowHitRate            80.03                       # Row buffer hit rate for reads
system.mem_ctrls.dram.writeRowHitRate           71.88                       # Row buffer hit rate for writes
system.mem_ctrls.dram.bytesPerActivate::samples          159                       # Bytes accessed per row activation
system.mem_ctrls.dram.bytesPerActivate::mean   315.169811                       # Bytes accessed per row activation
system.mem_ctrls.dram.bytesPerActivate::gmean   204.586241                       # Bytes accessed per row activation
system.mem_ctrls.dram.bytesPerActivate::stdev   296.672543                       # Bytes accessed per row activation
system.mem_ctrls.dram.bytesPerActivate::0-127           45     28.30%     28.30% # Bytes accessed per row activation
system.mem_ctrls.dram.bytesPerActivate::128-255           39     24.53%     52.83% # Bytes accessed per row activation
system.mem_ctrls.dram.bytesPerActivate::256-383           25     15.72%     68.55% # Bytes accessed per row activation
system.mem_ctrls.dram.bytesPerActivate::384-511           14      8.81%     77.36% # Bytes accessed per row activation
system.mem_ctrls.dram.bytesPerActivate::512-639           10      6.29%     83.65% # Bytes accessed per row activation
system.mem_ctrls.dram.bytesPerActivate::640-767            6      3.77%     87.42% # Bytes accessed per row activation
system.mem_ctrls.dram.bytesPerActivate::768-895            5      3.14%     90.57% # Bytes accessed per row activation
system.mem_ctrls.dram.bytesPerActivate::896-1023            3      1.89%     92.45% # Bytes accessed per row activation
system.mem_ctrls.dram.bytesPerActivate::1024-1151           12      7.55%    100.00% # Bytes accessed per row activation
system.mem_ctrls.dram.bytesPerActivate::total          159                       # Bytes accessed per row activation
system.mem_ctrls.dram.bytesRead                 48064                       # Total number of bytes read from DRAM
system.mem_ctrls.dram.bytesWritten               2048                       # Total number of bytes written to DRAM
system.mem_ctrls.dram.avgRdBW                0.929630                       # Average DRAM read bandwidth in MiBytes/s
system.mem_ctrls.dram.avgWrBW                0.039611                       # Average DRAM write bandwidth in MiBytes/s
system.mem_ctrls.dram.peakBW                 12800.00                       # Theoretical peak bandwidth in MiByte/s
system.mem_ctrls.dram.busUtil                    0.01                       # Data bus utilization in percentage
system.mem_ctrls.dram.busUtilRead                0.01                       # Data bus utilization in percentage for reads
system.mem_ctrls.dram.busUtilWrite               0.00                       # Data bus utilization in percentage for writes
system.mem_ctrls.dram.pageHitRate               79.69                       # Row buffer hit rate, read and write combined
system.mem_ctrls.dram.power_state.pwrStateResidencyTicks::UNDEFINED  51702292500                       # Cumulative time (in ticks) in various power states
system.mem_ctrls.dram.rank0.actEnergy          614040                       # Energy for activate commands per rank (pJ)
system.mem_ctrls.dram.rank0.preEnergy          326370                       # Energy for precharge commands per rank (pJ)
system.mem_ctrls.dram.rank0.readEnergy        3163020                       # Energy for read commands per rank (pJ)
system.mem_ctrls.dram.rank0.writeEnergy          5220                       # Energy for write commands per rank (pJ)
system.mem_ctrls.dram.rank0.refreshEnergy 4081209600.000000                       # Energy for refresh commands per rank (pJ)
system.mem_ctrls.dram.rank0.actBackEnergy    781958490                       # Energy for active background per rank (pJ)
system.mem_ctrls.dram.rank0.preBackEnergy  19195188960                       # Energy for precharge background per rank (pJ)
system.mem_ctrls.dram.rank0.actPowerDownEnergy            0                       # Energy for active power-down per rank (pJ)
system.mem_ctrls.dram.rank0.prePowerDownEnergy            0                       # Energy for precharge power-down per rank (pJ)
system.mem_ctrls.dram.rank0.selfRefreshEnergy            0                       # Energy for self refresh per rank (pJ)
system.mem_ctrls.dram.rank0.totalEnergy   24062465700                       # Total energy per rank (pJ)
system.mem_ctrls.dram.rank0.averagePower   465.404231                       # Core power per rank (mW)
system.mem_ctrls.dram.rank0.totalIdleTime            0                       # Total Idle time Per DRAM Rank
system.mem_ctrls.dram.rank0.pwrStateTime::IDLE  49896016875                       # Time in different power states
system.mem_ctrls.dram.rank0.pwrStateTime::REF   1726400000                       # Time in different power states
system.mem_ctrls.dram.rank0.pwrStateTime::SREF            0                       # Time in different power states
system.mem_ctrls.dram.rank0.pwrStateTime::PRE_PDN            0                       # Time in different power states
system.mem_ctrls.dram.rank0.pwrStateTime::ACT     79875625                       # Time in different power states
system.mem_ctrls.dram.rank0.pwrStateTime::ACT_PDN            0                       # Time in different power states
system.mem_ctrls.dram.rank1.actEnergy          521220                       # Energy for activate commands per rank (pJ)
system.mem_ctrls.dram.rank1.preEnergy          277035                       # Energy for precharge commands per rank (pJ)
system.mem_ctrls.dram.rank1.readEnergy        2199120                       # Energy for read commands per rank (pJ)
system.mem_ctrls.dram.rank1.writeEnergy        161820                       # Energy for write commands per rank (pJ)
system.mem_ctrls.dram.rank1.refreshEnergy 4081209600.000000                       # Energy for refresh commands per rank (pJ)
system.mem_ctrls.dram.rank1.actBackEnergy    768908340                       # Energy for active background per rank (pJ)
system.mem_ctrls.dram.rank1.preBackEnergy  19206178560                       # Energy for precharge background per rank (pJ)
system.mem_ctrls.dram.rank1.actPowerDownEnergy            0                       # Energy for active power-down per rank (pJ)
system.mem_ctrls.dram.rank1.prePowerDownEnergy            0                       # Energy for precharge power-down per rank (pJ)
system.mem_ctrls.dram.rank1.selfRefreshEnergy            0                       # Energy for self refresh per rank (pJ)
system.mem_ctrls.dram.rank1.totalEnergy   24059455695                       # Total energy per rank (pJ)
system.mem_ctrls.dram.rank1.averagePower   465.346013                       # Core power per rank (mW)
system.mem_ctrls.dram.rank1.totalIdleTime            0                       # Total Idle time Per DRAM Rank
system.mem_ctrls.dram.rank1.pwrStateTime::IDLE  49924635625                       # Time in different power states
system.mem_ctrls.dram.rank1.pwrStateTime::REF   1726400000                       # Time in different power states
system.mem_ctrls.dram.rank1.pwrStateTime::SREF            0                       # Time in different power states
system.mem_ctrls.dram.rank1.pwrStateTime::PRE_PDN            0                       # Time in different power states
system.mem_ctrls.dram.rank1.pwrStateTime::ACT     51256875                       # Time in different power states
system.mem_ctrls.dram.rank1.pwrStateTime::ACT_PDN            0                       # Time in different power states
system.mem_ctrls.power_state.pwrStateResidencyTicks::UNDEFINED  51702292500                       # Cumulative time (in ticks) in various power states
system.membus.trans_dist::ReadResp                630                       # Transaction distribution
system.membus.trans_dist::WritebackClean           63                       # Transaction distribution
system.membus.trans_dist::ReadExReq               121                       # Transaction distribution
system.membus.trans_dist::ReadExResp              121                       # Transaction distribution
system.membus.trans_dist::ReadCleanReq            496                       # Transaction distribution
system.membus.trans_dist::ReadSharedReq           134                       # Transaction distribution
system.membus.pkt_count_system.cpu.icache.mem_side_port::system.mem_ctrls.port         1052                       # Packet count per connected requestor and responder (bytes)
system.membus.pkt_count_system.cpu.dcache.mem_side_port::system.mem_ctrls.port          513                       # Packet count per connected requestor and responder (bytes)
system.membus.pkt_count::total                   1565                       # Packet count per connected requestor and responder (bytes)
system.membus.pkt_size_system.cpu.icache.mem_side_port::system.mem_ctrls.port        35584                       # Cumulative packet size per connected requestor and responder (bytes)
system.membus.pkt_size_system.cpu.dcache.mem_side_port::system.mem_ctrls.port        16512                       # Cumulative packet size per connected requestor and responder (bytes)
system.membus.pkt_size::total                   52096                       # Cumulative packet size per connected requestor and responder (bytes)
system.membus.snoops                                0                       # Total snoops (count)
system.membus.snoopTraffic                          0                       # Total snoop traffic (bytes)
system.membus.snoop_fanout::samples               751                       # Request fanout histogram
system.membus.snoop_fanout::mean             0.046605                       # Request fanout histogram
system.membus.snoop_fanout::stdev            0.210931                       # Request fanout histogram
system.membus.snoop_fanout::underflows              0      0.00%      0.00% # Request fanout histogram
system.membus.snoop_fanout::0                     716     95.34%     95.34% # Request fanout histogram
system.membus.snoop_fanout::1                      35      4.66%    100.00% # Request fanout histogram
system.membus.snoop_fanout::2                       0      0.00%    100.00% # Request fanout histogram
system.membus.snoop_fanout::3                       0      0.00%    100.00% # Request fanout histogram
system.membus.snoop_fanout::4                       0      0.00%    100.00% # Request fanout histogram
system.membus.snoop_fanout::overflows               0      0.00%    100.00% # Request fanout histogram
system.membus.snoop_fanout::min_value               0                       # Request fanout histogram
system.membus.snoop_fanout::max_value               1                       # Request fanout histogram
system.membus.snoop_fanout::total                 751                       # Request fanout histogram
system.membus.power_state.pwrStateResidencyTicks::UNDEFINED  51702292500                       # Cumulative time (in ticks) in various power states
system.membus.reqLayer0.occupancy             1385375                       # Layer occupancy (ticks)
system.membus.reqLayer0.utilization               0.0                       # Layer utilization (%)
system.membus.respLayer1.occupancy            2629250                       # Layer occupancy (ticks)
system.membus.respLayer1.utilization              0.0                       # Layer utilization (%)
system.membus.respLayer2.occupancy            1370000                       # Layer occupancy (ticks)
system.membus.respLayer2.utilization              0.0                       # Layer utilization (%)
system.voltage_domain.voltage                       1                       # Voltage in Volts

---------- End Simulation Statistics   ----------
