
---------- Begin Simulation Statistics ----------
final_tick                                10697795000                       # Number of ticks from beginning of simulation (restored from checkpoints and never reset)
host_inst_rate                                 322824                       # Simulator instruction rate (inst/s)
host_mem_usage                                 657068                       # Number of bytes of host memory used
host_op_rate                                   324978                       # Simulator op (including micro ops) rate (op/s)
host_seconds                                   103.57                       # Real time elapsed on the host
host_tick_rate                              103287745                       # Simulator tick rate (ticks/s)
sim_freq                                 1000000000000                       # Frequency of simulated ticks
sim_insts                                    33435691                       # Number of instructions simulated
sim_ops                                      33658812                       # Number of ops (including micro ops) simulated
sim_seconds                                  0.010698                       # Number of seconds simulated
sim_ticks                                 10697795000                       # Number of ticks simulated
system.cpu.cc_regfile_reads                 127448190                       # number of cc regfile reads
system.cpu.cc_regfile_writes                  3327315                       # number of cc regfile writes
system.cpu.committedInsts                    33435691                       # Number of Instructions Simulated
system.cpu.committedOps                      33658812                       # Number of Ops (including micro ops) Simulated
system.cpu.cpi                               0.511922                       # CPI: Cycles Per Instruction
system.cpu.cpi_total                         0.511922                       # CPI: Total CPI of All Threads
system.cpu.idleCycles                           40950                       # Total number of cycles that the CPU has spent unscheduled due to idling
system.cpu.iew.branchMispredicts                31927                       # Number of branch mispredicts detected at execute
system.cpu.iew.branch_mispredict_rate        0.993166                       # Percentage of branch mispredicts
system.cpu.iew.branch_percentage             9.448434                       # Percentage of branches executed
system.cpu.iew.exec_branches                  3214669                       # Number of branches executed
system.cpu.iew.exec_nop                             3                       # number of nop insts executed
system.cpu.iew.exec_rate                     1.987752                       # Inst execution rate
system.cpu.iew.exec_refs                     12345442                       # number of memory reference insts executed
system.cpu.iew.exec_stores                    3870416                       # Number of stores executed
system.cpu.iew.exec_swp                             0                       # number of swp insts executed
system.cpu.iew.iewBlockCycles                   49860                       # Number of cycles IEW is blocking
system.cpu.iew.iewDispLoadInsts               8581912                       # Number of dispatched load instructions
system.cpu.iew.iewDispNonSpecInsts                 67                       # Number of dispatched non-speculative instructions
system.cpu.iew.iewDispSquashedInsts                 0                       # Number of squashed instructions skipped by dispatch
system.cpu.iew.iewDispStoreInsts              3932355                       # Number of dispatched store instructions
system.cpu.iew.iewDispatchedInsts            34242988                       # Number of instructions dispatched to IQ
system.cpu.iew.iewExecLoadInsts               8475026                       # Number of load instructions executed
system.cpu.iew.iewExecSquashedInsts             84301                       # Number of squashed instructions skipped in execute
system.cpu.iew.iewExecutedInsts              34023300                       # Number of executed instructions
system.cpu.iew.iewIQFullEvents                      7                       # Number of times the IQ has become full, causing a stall
system.cpu.iew.iewIdleCycles                        0                       # Number of cycles IEW is idle
system.cpu.iew.iewLSQFullEvents                    83                       # Number of times the LSQ has become full, causing a stall
system.cpu.iew.iewSquashCycles                  31920                       # Number of cycles IEW is squashing
system.cpu.iew.iewUnblockCycles                    95                       # Number of cycles IEW is unblocking
system.cpu.iew.memOrderViolationEvents             64                       # Number of memory order violations
system.cpu.iew.predictedNotTakenIncorrect         1039                       # Number of branches that were predicted not taken incorrectly
system.cpu.iew.predictedTakenIncorrect          30888                       # Number of branches that were predicted taken incorrectly
system.cpu.iew.wb_consumers                  26243187                       # num instructions consuming a value
system.cpu.iew.wb_count                      34007639                       # cumulative count of insts written-back
system.cpu.iew.wb_fanout                     0.937014                       # average fanout of values written-back
system.cpu.iew.wb_producers                  24590221                       # num instructions producing a value
system.cpu.iew.wb_rate                       1.986837                       # insts written-back per cycle
system.cpu.iew.wb_sent                       34007833                       # cumulative count of insts sent to commit
system.cpu.int_regfile_reads                 33235454                       # number of integer regfile reads
system.cpu.int_regfile_writes                26918738                       # number of integer regfile writes
system.cpu.ipc                               1.953422                       # IPC: Instructions Per Cycle
system.cpu.ipc_total                         1.953422                       # IPC: Total IPC of All Threads
system.cpu.iq.FU_type_0::No_OpClass                 6      0.00%      0.00% # Type of FU issued
system.cpu.iq.FU_type_0::IntAlu              21711615     63.66%     63.66% # Type of FU issued
system.cpu.iq.FU_type_0::IntMult                  168      0.00%     63.66% # Type of FU issued
system.cpu.iq.FU_type_0::IntDiv                     0      0.00%     63.66% # Type of FU issued
system.cpu.iq.FU_type_0::FloatAdd                   0      0.00%     63.66% # Type of FU issued
system.cpu.iq.FU_type_0::FloatCmp                   0      0.00%     63.66% # Type of FU issued
system.cpu.iq.FU_type_0::FloatCvt                   0      0.00%     63.66% # Type of FU issued
system.cpu.iq.FU_type_0::FloatMult                  0      0.00%     63.66% # Type of FU issued
system.cpu.iq.FU_type_0::FloatMultAcc               0      0.00%     63.66% # Type of FU issued
system.cpu.iq.FU_type_0::FloatDiv                   0      0.00%     63.66% # Type of FU issued
system.cpu.iq.FU_type_0::FloatMisc                  0      0.00%     63.66% # Type of FU issued
system.cpu.iq.FU_type_0::FloatSqrt                  0      0.00%     63.66% # Type of FU issued
system.cpu.iq.FU_type_0::SimdAdd                    0      0.00%     63.66% # Type of FU issued
system.cpu.iq.FU_type_0::SimdAddAcc                 0      0.00%     63.66% # Type of FU issued
system.cpu.iq.FU_type_0::SimdAlu                    0      0.00%     63.66% # Type of FU issued
system.cpu.iq.FU_type_0::SimdCmp                    0      0.00%     63.66% # Type of FU issued
system.cpu.iq.FU_type_0::SimdCvt                    0      0.00%     63.66% # Type of FU issued
system.cpu.iq.FU_type_0::SimdMisc                   0      0.00%     63.66% # Type of FU issued
system.cpu.iq.FU_type_0::SimdMult                   0      0.00%     63.66% # Type of FU issued
system.cpu.iq.FU_type_0::SimdMultAcc                0      0.00%     63.66% # Type of FU issued
system.cpu.iq.FU_type_0::SimdShift                  0      0.00%     63.66% # Type of FU issued
system.cpu.iq.FU_type_0::SimdShiftAcc               0      0.00%     63.66% # Type of FU issued
system.cpu.iq.FU_type_0::SimdDiv                    0      0.00%     63.66% # Type of FU issued
system.cpu.iq.FU_type_0::SimdSqrt                   0      0.00%     63.66% # Type of FU issued
system.cpu.iq.FU_type_0::SimdFloatAdd               0      0.00%     63.66% # Type of FU issued
system.cpu.iq.FU_type_0::SimdFloatAlu               0      0.00%     63.66% # Type of FU issued
system.cpu.iq.FU_type_0::SimdFloatCmp               0      0.00%     63.66% # Type of FU issued
system.cpu.iq.FU_type_0::SimdFloatCvt               0      0.00%     63.66% # Type of FU issued
system.cpu.iq.FU_type_0::SimdFloatDiv               0      0.00%     63.66% # Type of FU issued
system.cpu.iq.FU_type_0::SimdFloatMisc              4      0.00%     63.66% # Type of FU issued
system.cpu.iq.FU_type_0::SimdFloatMult              0      0.00%     63.66% # Type of FU issued
system.cpu.iq.FU_type_0::SimdFloatMultAcc            0      0.00%     63.66% # Type of FU issued
system.cpu.iq.FU_type_0::SimdFloatSqrt              0      0.00%     63.66% # Type of FU issued
system.cpu.iq.FU_type_0::SimdReduceAdd              0      0.00%     63.66% # Type of FU issued
system.cpu.iq.FU_type_0::SimdReduceAlu              0      0.00%     63.66% # Type of FU issued
system.cpu.iq.FU_type_0::SimdReduceCmp              0      0.00%     63.66% # Type of FU issued
system.cpu.iq.FU_type_0::SimdFloatReduceAdd            0      0.00%     63.66% # Type of FU issued
system.cpu.iq.FU_type_0::SimdFloatReduceCmp            0      0.00%     63.66% # Type of FU issued
system.cpu.iq.FU_type_0::SimdAes                    0      0.00%     63.66% # Type of FU issued
system.cpu.iq.FU_type_0::SimdAesMix                 0      0.00%     63.66% # Type of FU issued
system.cpu.iq.FU_type_0::SimdSha1Hash               0      0.00%     63.66% # Type of FU issued
system.cpu.iq.FU_type_0::SimdSha1Hash2              0      0.00%     63.66% # Type of FU issued
system.cpu.iq.FU_type_0::SimdSha256Hash             0      0.00%     63.66% # Type of FU issued
system.cpu.iq.FU_type_0::SimdSha256Hash2            0      0.00%     63.66% # Type of FU issued
system.cpu.iq.FU_type_0::SimdShaSigma2              0      0.00%     63.66% # Type of FU issued
system.cpu.iq.FU_type_0::SimdShaSigma3              0      0.00%     63.66% # Type of FU issued
system.cpu.iq.FU_type_0::SimdPredAlu                0      0.00%     63.66% # Type of FU issued
system.cpu.iq.FU_type_0::MemRead              8521517     24.98%     88.64% # Type of FU issued
system.cpu.iq.FU_type_0::MemWrite             3874291     11.36%    100.00% # Type of FU issued
system.cpu.iq.FU_type_0::FloatMemRead               0      0.00%    100.00% # Type of FU issued
system.cpu.iq.FU_type_0::FloatMemWrite              0      0.00%    100.00% # Type of FU issued
system.cpu.iq.FU_type_0::IprAccess                  0      0.00%    100.00% # Type of FU issued
system.cpu.iq.FU_type_0::InstPrefetch               0      0.00%    100.00% # Type of FU issued
system.cpu.iq.FU_type_0::total               34107601                       # Type of FU issued
system.cpu.iq.fp_alu_accesses                       0                       # Number of floating point alu accesses
system.cpu.iq.fp_inst_queue_reads                   0                       # Number of floating instruction queue reads
system.cpu.iq.fp_inst_queue_wakeup_accesses            0                       # Number of floating instruction queue wakeup accesses
system.cpu.iq.fp_inst_queue_writes                  0                       # Number of floating instruction queue writes
system.cpu.iq.fu_busy_cnt                     2669020                       # FU busy when requested
system.cpu.iq.fu_busy_rate                   0.078253                       # FU busy rate (busy events/executed inst)
system.cpu.iq.fu_full::No_OpClass                   0      0.00%      0.00% # attempts to use FU when none available
system.cpu.iq.fu_full::IntAlu                  610370     22.87%     22.87% # attempts to use FU when none available
system.cpu.iq.fu_full::IntMult                     79      0.00%     22.87% # attempts to use FU when none available
system.cpu.iq.fu_full::IntDiv                       0      0.00%     22.87% # attempts to use FU when none available
system.cpu.iq.fu_full::FloatAdd                     0      0.00%     22.87% # attempts to use FU when none available
system.cpu.iq.fu_full::FloatCmp                     0      0.00%     22.87% # attempts to use FU when none available
system.cpu.iq.fu_full::FloatCvt                     0      0.00%     22.87% # attempts to use FU when none available
system.cpu.iq.fu_full::FloatMult                    0      0.00%     22.87% # attempts to use FU when none available
system.cpu.iq.fu_full::FloatMultAcc                 0      0.00%     22.87% # attempts to use FU when none available
system.cpu.iq.fu_full::FloatDiv                     0      0.00%     22.87% # attempts to use FU when none available
system.cpu.iq.fu_full::FloatMisc                    0      0.00%     22.87% # attempts to use FU when none available
system.cpu.iq.fu_full::FloatSqrt                    0      0.00%     22.87% # attempts to use FU when none available
system.cpu.iq.fu_full::SimdAdd                      0      0.00%     22.87% # attempts to use FU when none available
system.cpu.iq.fu_full::SimdAddAcc                   0      0.00%     22.87% # attempts to use FU when none available
system.cpu.iq.fu_full::SimdAlu                      0      0.00%     22.87% # attempts to use FU when none available
system.cpu.iq.fu_full::SimdCmp                      0      0.00%     22.87% # attempts to use FU when none available
system.cpu.iq.fu_full::SimdCvt                      0      0.00%     22.87% # attempts to use FU when none available
system.cpu.iq.fu_full::SimdMisc                     0      0.00%     22.87% # attempts to use FU when none available
system.cpu.iq.fu_full::SimdMult                     0      0.00%     22.87% # attempts to use FU when none available
system.cpu.iq.fu_full::SimdMultAcc                  0      0.00%     22.87% # attempts to use FU when none available
system.cpu.iq.fu_full::SimdShift                    0      0.00%     22.87% # attempts to use FU when none available
system.cpu.iq.fu_full::SimdShiftAcc                 0      0.00%     22.87% # attempts to use FU when none available
system.cpu.iq.fu_full::SimdDiv                      0      0.00%     22.87% # attempts to use FU when none available
system.cpu.iq.fu_full::SimdSqrt                     0      0.00%     22.87% # attempts to use FU when none available
system.cpu.iq.fu_full::SimdFloatAdd                 0      0.00%     22.87% # attempts to use FU when none available
system.cpu.iq.fu_full::SimdFloatAlu                 0      0.00%     22.87% # attempts to use FU when none available
system.cpu.iq.fu_full::SimdFloatCmp                 0      0.00%     22.87% # attempts to use FU when none available
system.cpu.iq.fu_full::SimdFloatCvt                 0      0.00%     22.87% # attempts to use FU when none available
system.cpu.iq.fu_full::SimdFloatDiv                 0      0.00%     22.87% # attempts to use FU when none available
system.cpu.iq.fu_full::SimdFloatMisc                0      0.00%     22.87% # attempts to use FU when none available
system.cpu.iq.fu_full::SimdFloatMult                0      0.00%     22.87% # attempts to use FU when none available
system.cpu.iq.fu_full::SimdFloatMultAcc             0      0.00%     22.87% # attempts to use FU when none available
system.cpu.iq.fu_full::SimdFloatSqrt                0      0.00%     22.87% # attempts to use FU when none available
system.cpu.iq.fu_full::SimdReduceAdd                0      0.00%     22.87% # attempts to use FU when none available
system.cpu.iq.fu_full::SimdReduceAlu                0      0.00%     22.87% # attempts to use FU when none available
system.cpu.iq.fu_full::SimdReduceCmp                0      0.00%     22.87% # attempts to use FU when none available
system.cpu.iq.fu_full::SimdFloatReduceAdd            0      0.00%     22.87% # attempts to use FU when none available
system.cpu.iq.fu_full::SimdFloatReduceCmp            0      0.00%     22.87% # attempts to use FU when none available
system.cpu.iq.fu_full::SimdAes                      0      0.00%     22.87% # attempts to use FU when none available
system.cpu.iq.fu_full::SimdAesMix                   0      0.00%     22.87% # attempts to use FU when none available
system.cpu.iq.fu_full::SimdSha1Hash                 0      0.00%     22.87% # attempts to use FU when none available
system.cpu.iq.fu_full::SimdSha1Hash2                0      0.00%     22.87% # attempts to use FU when none available
system.cpu.iq.fu_full::SimdSha256Hash               0      0.00%     22.87% # attempts to use FU when none available
system.cpu.iq.fu_full::SimdSha256Hash2              0      0.00%     22.87% # attempts to use FU when none available
system.cpu.iq.fu_full::SimdShaSigma2                0      0.00%     22.87% # attempts to use FU when none available
system.cpu.iq.fu_full::SimdShaSigma3                0      0.00%     22.87% # attempts to use FU when none available
system.cpu.iq.fu_full::SimdPredAlu                  0      0.00%     22.87% # attempts to use FU when none available
system.cpu.iq.fu_full::MemRead                1730481     64.84%     87.71% # attempts to use FU when none available
system.cpu.iq.fu_full::MemWrite                328090     12.29%    100.00% # attempts to use FU when none available
system.cpu.iq.fu_full::FloatMemRead                 0      0.00%    100.00% # attempts to use FU when none available
system.cpu.iq.fu_full::FloatMemWrite                0      0.00%    100.00% # attempts to use FU when none available
system.cpu.iq.fu_full::IprAccess                    0      0.00%    100.00% # attempts to use FU when none available
system.cpu.iq.fu_full::InstPrefetch                 0      0.00%    100.00% # attempts to use FU when none available
system.cpu.iq.int_alu_accesses               36776615                       # Number of integer alu accesses
system.cpu.iq.int_inst_queue_reads           87960313                       # Number of integer instruction queue reads
system.cpu.iq.int_inst_queue_wakeup_accesses     34007639                       # Number of integer instruction queue wakeup accesses
system.cpu.iq.int_inst_queue_writes          34827220                       # Number of integer instruction queue writes
system.cpu.iq.iqInstsAdded                   34242866                       # Number of instructions added to the IQ (excludes non-spec)
system.cpu.iq.iqInstsIssued                  34107601                       # Number of instructions issued
system.cpu.iq.iqNonSpecInstsAdded                 119                       # Number of non-speculative instructions added to the IQ
system.cpu.iq.iqSquashedInstsExamined          584172                       # Number of squashed instructions iterated over during squash; mainly for profiling
system.cpu.iq.iqSquashedInstsIssued               568                       # Number of squashed instructions issued
system.cpu.iq.iqSquashedNonSpecRemoved              2                       # Number of squashed non-spec instructions that were removed
system.cpu.iq.iqSquashedOperandsExamined      1119451                       # Number of squashed operands that are examined and possibly removed from graph
system.cpu.iq.issued_per_cycle::samples      17075523                       # Number of insts issued each cycle
system.cpu.iq.issued_per_cycle::mean         1.997456                       # Number of insts issued each cycle
system.cpu.iq.issued_per_cycle::stdev        0.788903                       # Number of insts issued each cycle
system.cpu.iq.issued_per_cycle::underflows            0      0.00%      0.00% # Number of insts issued each cycle
system.cpu.iq.issued_per_cycle::0              468437      2.74%      2.74% # Number of insts issued each cycle
system.cpu.iq.issued_per_cycle::1             3894257     22.81%     25.55% # Number of insts issued each cycle
system.cpu.iq.issued_per_cycle::2             7960983     46.62%     72.17% # Number of insts issued each cycle
system.cpu.iq.issued_per_cycle::3             4716006     27.62%     99.79% # Number of insts issued each cycle
system.cpu.iq.issued_per_cycle::4               35840      0.21%    100.00% # Number of insts issued each cycle
system.cpu.iq.issued_per_cycle::5                   0      0.00%    100.00% # Number of insts issued each cycle
system.cpu.iq.issued_per_cycle::6                   0      0.00%    100.00% # Number of insts issued each cycle
system.cpu.iq.issued_per_cycle::7                   0      0.00%    100.00% # Number of insts issued each cycle
system.cpu.iq.issued_per_cycle::8                   0      0.00%    100.00% # Number of insts issued each cycle
system.cpu.iq.issued_per_cycle::overflows            0      0.00%    100.00% # Number of insts issued each cycle
system.cpu.iq.issued_per_cycle::min_value            0                       # Number of insts issued each cycle
system.cpu.iq.issued_per_cycle::max_value            4                       # Number of insts issued each cycle
system.cpu.iq.issued_per_cycle::total        17075523                       # Number of insts issued each cycle
system.cpu.iq.rate                           1.992677                       # Inst issue rate
system.cpu.iq.vec_alu_accesses                      0                       # Number of vector alu accesses
system.cpu.iq.vec_inst_queue_reads                  0                       # Number of vector instruction queue reads
system.cpu.iq.vec_inst_queue_wakeup_accesses            0                       # Number of vector instruction queue wakeup accesses
system.cpu.iq.vec_inst_queue_writes                 0                       # Number of vector instruction queue writes
system.cpu.memDep0.conflictingLoads            300875                       # Number of conflicting loads.
system.cpu.memDep0.conflictingStores              205                       # Number of conflicting stores.
system.cpu.memDep0.insertedLoads              8581912                       # Number of loads inserted to the mem dependence unit.
system.cpu.memDep0.insertedStores             3932355                       # Number of stores inserted to the mem dependence unit.
system.cpu.misc_regfile_reads               105182321                       # number of misc regfile reads
system.cpu.misc_regfile_writes                    206                       # number of misc regfile writes
system.cpu.numCycles                         17116473                       # number of cpu cycles simulated
system.cpu.numWorkItemsCompleted                    0                       # number of work items this cpu completed
system.cpu.numWorkItemsStarted                      0                       # number of work items this cpu started
system.cpu.timesIdled                             625                       # Number of times that the entire CPU went into an idle state and unscheduled itself
system.cpu.vec_regfile_reads                       32                       # number of vector regfile reads
system.cpu.workload.numSyscalls                    13                       # Number of system calls
system.membus.snoop_filter.hit_multi_requests           36                       # Number of requests hitting in the snoop filter with multiple (>1) holders of the requested data.
system.membus.snoop_filter.hit_multi_snoops            0                       # Number of snoops hitting in the snoop filter with multiple (>1) holders of the requested data.
system.membus.snoop_filter.hit_single_requests         1182                       # Number of requests hitting in the snoop filter with a single holder of the requested data.
system.membus.snoop_filter.hit_single_snoops            0                       # Number of snoops hitting in the snoop filter with a single holder of the requested data.
system.membus.snoop_filter.tot_requests          3335                       # Total number of requests made to the snoop filter.
system.membus.snoop_filter.tot_snoops               0                       # Total number of snoops made to the snoop filter.
system.clk_domain.clock                          1000                       # Clock period in ticks
system.cpu.branchPred.lookups                 3224720                       # Number of BP lookups
system.cpu.branchPred.condPredicted           1013126                       # Number of conditional branches predicted
system.cpu.branchPred.condIncorrect             32264                       # Number of conditional branches incorrect
system.cpu.branchPred.BTBLookups              2015047                       # Number of BTB lookups
system.cpu.branchPred.BTBHits                 2013498                       # Number of BTB hits
system.cpu.branchPred.BTBHitPct             99.923128                       # BTB Hit Percentage
system.cpu.branchPred.RASUsed                 1104975                       # Number of times the RAS was used to get a target.
system.cpu.branchPred.RASIncorrect                174                       # Number of incorrect RAS predictions.
system.cpu.branchPred.indirectLookups          100637                       # Number of indirect predictor lookups.
system.cpu.branchPred.indirectHits             100121                       # Number of indirect target hits.
system.cpu.branchPred.indirectMisses              516                       # Number of indirect misses.
system.cpu.branchPred.indirectMispredicted        27169                       # Number of mispredicted indirect branches.
system.cpu.commit.commitSquashedInsts          513098                       # The number of squashed insts skipped by commit
system.cpu.commit.commitNonSpecStalls             117                       # The number of times commit has been forced to stall to communicate backwards
system.cpu.commit.branchMispredicts             31825                       # The number of times a branch was mispredicted
system.cpu.commit.numCommittedDist::samples     16994238                       # Number of insts commited each cycle
system.cpu.commit.numCommittedDist::mean     1.980601                       # Number of insts commited each cycle
system.cpu.commit.numCommittedDist::stdev     2.392987                       # Number of insts commited each cycle
system.cpu.commit.numCommittedDist::underflows            0      0.00%      0.00% # Number of insts commited each cycle
system.cpu.commit.numCommittedDist::0         6167969     36.29%     36.29% # Number of insts commited each cycle
system.cpu.commit.numCommittedDist::1         4285676     25.22%     61.51% # Number of insts commited each cycle
system.cpu.commit.numCommittedDist::2         1257366      7.40%     68.91% # Number of insts commited each cycle
system.cpu.commit.numCommittedDist::3         1325178      7.80%     76.71% # Number of insts commited each cycle
system.cpu.commit.numCommittedDist::4         1154719      6.79%     83.50% # Number of insts commited each cycle
system.cpu.commit.numCommittedDist::5         1080295      6.36%     89.86% # Number of insts commited each cycle
system.cpu.commit.numCommittedDist::6          403900      2.38%     92.24% # Number of insts commited each cycle
system.cpu.commit.numCommittedDist::7          113961      0.67%     92.91% # Number of insts commited each cycle
system.cpu.commit.numCommittedDist::8         1205174      7.09%    100.00% # Number of insts commited each cycle
system.cpu.commit.numCommittedDist::overflows            0      0.00%    100.00% # Number of insts commited each cycle
system.cpu.commit.numCommittedDist::min_value            0                       # Number of insts commited each cycle
system.cpu.commit.numCommittedDist::max_value            8                       # Number of insts commited each cycle
system.cpu.commit.numCommittedDist::total     16994238                       # Number of insts commited each cycle
system.cpu.commit.instsCommitted             33435691                       # Number of instructions committed
system.cpu.commit.opsCommitted               33658812                       # Number of ops (including micro ops) committed
system.cpu.commit.memRefs                    12269756                       # Number of memory references committed
system.cpu.commit.loads                       8426843                       # Number of loads committed
system.cpu.commit.amos                              0                       # Number of atomic instructions committed
system.cpu.commit.membars                          52                       # Number of memory barriers committed
system.cpu.commit.branches                    3208608                       # Number of branches committed
system.cpu.commit.vector                            0                       # Number of committed Vector instructions.
system.cpu.commit.floating                          0                       # Number of committed floating point instructions.
system.cpu.commit.integer                    32651800                       # Number of committed integer instructions.
system.cpu.commit.functionCalls               1100703                       # Number of function calls committed.
system.cpu.commit.committedInstType_0::No_OpClass            0      0.00%      0.00% # Class of committed instruction
system.cpu.commit.committedInstType_0::IntAlu     21388897     63.55%     63.55% # Class of committed instruction
system.cpu.commit.committedInstType_0::IntMult          155      0.00%     63.55% # Class of committed instruction
system.cpu.commit.committedInstType_0::IntDiv            0      0.00%     63.55% # Class of committed instruction
system.cpu.commit.committedInstType_0::FloatAdd            0      0.00%     63.55% # Class of committed instruction
system.cpu.commit.committedInstType_0::FloatCmp            0      0.00%     63.55% # Class of committed instruction
system.cpu.commit.committedInstType_0::FloatCvt            0      0.00%     63.55% # Class of committed instruction
system.cpu.commit.committedInstType_0::FloatMult            0      0.00%     63.55% # Class of committed instruction
system.cpu.commit.committedInstType_0::FloatMultAcc            0      0.00%     63.55% # Class of committed instruction
system.cpu.commit.committedInstType_0::FloatDiv            0      0.00%     63.55% # Class of committed instruction
system.cpu.commit.committedInstType_0::FloatMisc            0      0.00%     63.55% # Class of committed instruction
system.cpu.commit.committedInstType_0::FloatSqrt            0      0.00%     63.55% # Class of committed instruction
system.cpu.commit.committedInstType_0::SimdAdd            0      0.00%     63.55% # Class of committed instruction
system.cpu.commit.committedInstType_0::SimdAddAcc            0      0.00%     63.55% # Class of committed instruction
system.cpu.commit.committedInstType_0::SimdAlu            0      0.00%     63.55% # Class of committed instruction
system.cpu.commit.committedInstType_0::SimdCmp            0      0.00%     63.55% # Class of committed instruction
system.cpu.commit.committedInstType_0::SimdCvt            0      0.00%     63.55% # Class of committed instruction
system.cpu.commit.committedInstType_0::SimdMisc            0      0.00%     63.55% # Class of committed instruction
system.cpu.commit.committedInstType_0::SimdMult            0      0.00%     63.55% # Class of committed instruction
system.cpu.commit.committedInstType_0::SimdMultAcc            0      0.00%     63.55% # Class of committed instruction
system.cpu.commit.committedInstType_0::SimdShift            0      0.00%     63.55% # Class of committed instruction
system.cpu.commit.committedInstType_0::SimdShiftAcc            0      0.00%     63.55% # Class of committed instruction
system.cpu.commit.committedInstType_0::SimdDiv            0      0.00%     63.55% # Class of committed instruction
system.cpu.commit.committedInstType_0::SimdSqrt            0      0.00%     63.55% # Class of committed instruction
system.cpu.commit.committedInstType_0::SimdFloatAdd            0      0.00%     63.55% # Class of committed instruction
system.cpu.commit.committedInstType_0::SimdFloatAlu            0      0.00%     63.55% # Class of committed instruction
system.cpu.commit.committedInstType_0::SimdFloatCmp            0      0.00%     63.55% # Class of committed instruction
system.cpu.commit.committedInstType_0::SimdFloatCvt            0      0.00%     63.55% # Class of committed instruction
system.cpu.commit.committedInstType_0::SimdFloatDiv            0      0.00%     63.55% # Class of committed instruction
system.cpu.commit.committedInstType_0::SimdFloatMisc            4      0.00%     63.55% # Class of committed instruction
system.cpu.commit.committedInstType_0::SimdFloatMult            0      0.00%     63.55% # Class of committed instruction
system.cpu.commit.committedInstType_0::SimdFloatMultAcc            0      0.00%     63.55% # Class of committed instruction
system.cpu.commit.committedInstType_0::SimdFloatSqrt            0      0.00%     63.55% # Class of committed instruction
system.cpu.commit.committedInstType_0::SimdReduceAdd            0      0.00%     63.55% # Class of committed instruction
system.cpu.commit.committedInstType_0::SimdReduceAlu            0      0.00%     63.55% # Class of committed instruction
system.cpu.commit.committedInstType_0::SimdReduceCmp            0      0.00%     63.55% # Class of committed instruction
system.cpu.commit.committedInstType_0::SimdFloatReduceAdd            0      0.00%     63.55% # Class of committed instruction
system.cpu.commit.committedInstType_0::SimdFloatReduceCmp            0      0.00%     63.55% # Class of committed instruction
system.cpu.commit.committedInstType_0::SimdAes            0      0.00%     63.55% # Class of committed instruction
system.cpu.commit.committedInstType_0::SimdAesMix            0      0.00%     63.55% # Class of committed instruction
system.cpu.commit.committedInstType_0::SimdSha1Hash            0      0.00%     63.55% # Class of committed instruction
system.cpu.commit.committedInstType_0::SimdSha1Hash2            0      0.00%     63.55% # Class of committed instruction
system.cpu.commit.committedInstType_0::SimdSha256Hash            0      0.00%     63.55% # Class of committed instruction
system.cpu.commit.committedInstType_0::SimdSha256Hash2            0      0.00%     63.55% # Class of committed instruction
system.cpu.commit.committedInstType_0::SimdShaSigma2            0      0.00%     63.55% # Class of committed instruction
system.cpu.commit.committedInstType_0::SimdShaSigma3            0      0.00%     63.55% # Class of committed instruction
system.cpu.commit.committedInstType_0::SimdPredAlu            0      0.00%     63.55% # Class of committed instruction
system.cpu.commit.committedInstType_0::MemRead      8426843     25.04%     88.58% # Class of committed instruction
system.cpu.commit.committedInstType_0::MemWrite      3842913     11.42%    100.00% # Class of committed instruction
system.cpu.commit.committedInstType_0::FloatMemRead            0      0.00%    100.00% # Class of committed instruction
system.cpu.commit.committedInstType_0::FloatMemWrite            0      0.00%    100.00% # Class of committed instruction
system.cpu.commit.committedInstType_0::IprAccess            0      0.00%    100.00% # Class of committed instruction
system.cpu.commit.committedInstType_0::InstPrefetch            0      0.00%    100.00% # Class of committed instruction
system.cpu.commit.committedInstType_0::total     33658812                       # Class of committed instruction
system.cpu.commit.commitEligibleSamples       1205174                       # number cycles where commit BW limit reached
system.cpu.dcache.demand_hits::.cpu.data     11411980                       # number of demand (read+write) hits
system.cpu.dcache.demand_hits::total         11411980                       # number of demand (read+write) hits
system.cpu.dcache.overall_hits::.cpu.data     11411980                       # number of overall hits
system.cpu.dcache.overall_hits::total        11411980                       # number of overall hits
system.cpu.dcache.demand_misses::.cpu.data         2547                       # number of demand (read+write) misses
system.cpu.dcache.demand_misses::total           2547                       # number of demand (read+write) misses
system.cpu.dcache.overall_misses::.cpu.data         2547                       # number of overall misses
system.cpu.dcache.overall_misses::total          2547                       # number of overall misses
system.cpu.dcache.demand_miss_latency::.cpu.data    149441125                       # number of demand (read+write) miss cycles
system.cpu.dcache.demand_miss_latency::total    149441125                       # number of demand (read+write) miss cycles
system.cpu.dcache.overall_miss_latency::.cpu.data    149441125                       # number of overall miss cycles
system.cpu.dcache.overall_miss_latency::total    149441125                       # number of overall miss cycles
system.cpu.dcache.demand_accesses::.cpu.data     11414527                       # number of demand (read+write) accesses
system.cpu.dcache.demand_accesses::total     11414527                       # number of demand (read+write) accesses
system.cpu.dcache.overall_accesses::.cpu.data     11414527                       # number of overall (read+write) accesses
system.cpu.dcache.overall_accesses::total     11414527                       # number of overall (read+write) accesses
system.cpu.dcache.demand_miss_rate::.cpu.data     0.000223                       # miss rate for demand accesses
system.cpu.dcache.demand_miss_rate::total     0.000223                       # miss rate for demand accesses
system.cpu.dcache.overall_miss_rate::.cpu.data     0.000223                       # miss rate for overall accesses
system.cpu.dcache.overall_miss_rate::total     0.000223                       # miss rate for overall accesses
system.cpu.dcache.demand_avg_miss_latency::.cpu.data 58673.390263                       # average overall miss latency
system.cpu.dcache.demand_avg_miss_latency::total 58673.390263                       # average overall miss latency
system.cpu.dcache.overall_avg_miss_latency::.cpu.data 58673.390263                       # average overall miss latency
system.cpu.dcache.overall_avg_miss_latency::total 58673.390263                       # average overall miss latency
system.cpu.dcache.blocked_cycles::no_mshrs            0                       # number of cycles access was blocked
system.cpu.dcache.blocked_cycles::no_targets         2178                       # number of cycles access was blocked
system.cpu.dcache.blocked::no_mshrs                 0                       # number of cycles access was blocked
system.cpu.dcache.blocked::no_targets              32                       # number of cycles access was blocked
system.cpu.dcache.avg_blocked_cycles::no_mshrs          nan                       # average number of cycles each access was blocked
system.cpu.dcache.avg_blocked_cycles::no_targets    68.062500                       # average number of cycles each access was blocked
system.cpu.dcache.writebacks::.writebacks          871                       # number of writebacks
system.cpu.dcache.writebacks::total               871                       # number of writebacks
system.cpu.dcache.demand_mshr_hits::.cpu.data         1164                       # number of demand (read+write) MSHR hits
system.cpu.dcache.demand_mshr_hits::total         1164                       # number of demand (read+write) MSHR hits
system.cpu.dcache.overall_mshr_hits::.cpu.data         1164                       # number of overall MSHR hits
system.cpu.dcache.overall_mshr_hits::total         1164                       # number of overall MSHR hits
system.cpu.dcache.demand_mshr_misses::.cpu.data         1383                       # number of demand (read+write) MSHR misses
system.cpu.dcache.demand_mshr_misses::total         1383                       # number of demand (read+write) MSHR misses
system.cpu.dcache.overall_mshr_misses::.cpu.data         1383                       # number of overall MSHR misses
system.cpu.dcache.overall_mshr_misses::total         1383                       # number of overall MSHR misses
system.cpu.dcache.demand_mshr_miss_latency::.cpu.data     84356375                       # number of demand (read+write) MSHR miss cycles
system.cpu.dcache.demand_mshr_miss_latency::total     84356375                       # number of demand (read+write) MSHR miss cycles
system.cpu.dcache.overall_mshr_miss_latency::.cpu.data     84356375                       # number of overall MSHR miss cycles
system.cpu.dcache.overall_mshr_miss_latency::total     84356375                       # number of overall MSHR miss cycles
system.cpu.dcache.demand_mshr_miss_rate::.cpu.data     0.000121                       # mshr miss rate for demand accesses
system.cpu.dcache.demand_mshr_miss_rate::total     0.000121                       # mshr miss rate for demand accesses
system.cpu.dcache.overall_mshr_miss_rate::.cpu.data     0.000121                       # mshr miss rate for overall accesses
system.cpu.dcache.overall_mshr_miss_rate::total     0.000121                       # mshr miss rate for overall accesses
system.cpu.dcache.demand_avg_mshr_miss_latency::.cpu.data 60995.209689                       # average overall mshr miss latency
system.cpu.dcache.demand_avg_mshr_miss_latency::total 60995.209689                       # average overall mshr miss latency
system.cpu.dcache.overall_avg_mshr_miss_latency::.cpu.data 60995.209689                       # average overall mshr miss latency
system.cpu.dcache.overall_avg_mshr_miss_latency::total 60995.209689                       # average overall mshr miss latency
system.cpu.dcache.replacements                    871                       # number of replacements
system.cpu.dcache.ReadReq_hits::.cpu.data      7667009                       # number of ReadReq hits
system.cpu.dcache.ReadReq_hits::total         7667009                       # number of ReadReq hits
system.cpu.dcache.ReadReq_misses::.cpu.data          420                       # number of ReadReq misses
system.cpu.dcache.ReadReq_misses::total           420                       # number of ReadReq misses
system.cpu.dcache.ReadReq_miss_latency::.cpu.data     26751250                       # number of ReadReq miss cycles
system.cpu.dcache.ReadReq_miss_latency::total     26751250                       # number of ReadReq miss cycles
system.cpu.dcache.ReadReq_accesses::.cpu.data      7667429                       # number of ReadReq accesses(hits+misses)
system.cpu.dcache.ReadReq_accesses::total      7667429                       # number of ReadReq accesses(hits+misses)
system.cpu.dcache.ReadReq_miss_rate::.cpu.data     0.000055                       # miss rate for ReadReq accesses
system.cpu.dcache.ReadReq_miss_rate::total     0.000055                       # miss rate for ReadReq accesses
system.cpu.dcache.ReadReq_avg_miss_latency::.cpu.data 63693.452381                       # average ReadReq miss latency
system.cpu.dcache.ReadReq_avg_miss_latency::total 63693.452381                       # average ReadReq miss latency
system.cpu.dcache.ReadReq_mshr_hits::.cpu.data          195                       # number of ReadReq MSHR hits
system.cpu.dcache.ReadReq_mshr_hits::total          195                       # number of ReadReq MSHR hits
system.cpu.dcache.ReadReq_mshr_misses::.cpu.data          225                       # number of ReadReq MSHR misses
system.cpu.dcache.ReadReq_mshr_misses::total          225                       # number of ReadReq MSHR misses
system.cpu.dcache.ReadReq_mshr_miss_latency::.cpu.data     14744500                       # number of ReadReq MSHR miss cycles
system.cpu.dcache.ReadReq_mshr_miss_latency::total     14744500                       # number of ReadReq MSHR miss cycles
system.cpu.dcache.ReadReq_mshr_miss_rate::.cpu.data     0.000029                       # mshr miss rate for ReadReq accesses
system.cpu.dcache.ReadReq_mshr_miss_rate::total     0.000029                       # mshr miss rate for ReadReq accesses
system.cpu.dcache.ReadReq_avg_mshr_miss_latency::.cpu.data 65531.111111                       # average ReadReq mshr miss latency
system.cpu.dcache.ReadReq_avg_mshr_miss_latency::total 65531.111111                       # average ReadReq mshr miss latency
system.cpu.dcache.WriteReq_hits::.cpu.data      3744971                       # number of WriteReq hits
system.cpu.dcache.WriteReq_hits::total        3744971                       # number of WriteReq hits
system.cpu.dcache.WriteReq_misses::.cpu.data         2127                       # number of WriteReq misses
system.cpu.dcache.WriteReq_misses::total         2127                       # number of WriteReq misses
system.cpu.dcache.WriteReq_miss_latency::.cpu.data    122689875                       # number of WriteReq miss cycles
system.cpu.dcache.WriteReq_miss_latency::total    122689875                       # number of WriteReq miss cycles
system.cpu.dcache.WriteReq_accesses::.cpu.data      3747098                       # number of WriteReq accesses(hits+misses)
system.cpu.dcache.WriteReq_accesses::total      3747098                       # number of WriteReq accesses(hits+misses)
system.cpu.dcache.WriteReq_miss_rate::.cpu.data     0.000568                       # miss rate for WriteReq accesses
system.cpu.dcache.WriteReq_miss_rate::total     0.000568                       # miss rate for WriteReq accesses
system.cpu.dcache.WriteReq_avg_miss_latency::.cpu.data 57682.122708                       # average WriteReq miss latency
system.cpu.dcache.WriteReq_avg_miss_latency::total 57682.122708                       # average WriteReq miss latency
system.cpu.dcache.WriteReq_mshr_hits::.cpu.data          969                       # number of WriteReq MSHR hits
system.cpu.dcache.WriteReq_mshr_hits::total          969                       # number of WriteReq MSHR hits
system.cpu.dcache.WriteReq_mshr_misses::.cpu.data         1158                       # number of WriteReq MSHR misses
system.cpu.dcache.WriteReq_mshr_misses::total         1158                       # number of WriteReq MSHR misses
system.cpu.dcache.WriteReq_mshr_miss_latency::.cpu.data     69611875                       # number of WriteReq MSHR miss cycles
system.cpu.dcache.WriteReq_mshr_miss_latency::total     69611875                       # number of WriteReq MSHR miss cycles
system.cpu.dcache.WriteReq_mshr_miss_rate::.cpu.data     0.000309                       # mshr miss rate for WriteReq accesses
system.cpu.dcache.WriteReq_mshr_miss_rate::total     0.000309                       # mshr miss rate for WriteReq accesses
system.cpu.dcache.WriteReq_avg_mshr_miss_latency::.cpu.data 60113.881693                       # average WriteReq mshr miss latency
system.cpu.dcache.WriteReq_avg_mshr_miss_latency::total 60113.881693                       # average WriteReq mshr miss latency
system.cpu.dcache.LoadLockedReq_hits::.cpu.data           49                       # number of LoadLockedReq hits
system.cpu.dcache.LoadLockedReq_hits::total           49                       # number of LoadLockedReq hits
system.cpu.dcache.LoadLockedReq_misses::.cpu.data            2                       # number of LoadLockedReq misses
system.cpu.dcache.LoadLockedReq_misses::total            2                       # number of LoadLockedReq misses
system.cpu.dcache.LoadLockedReq_miss_latency::.cpu.data       100000                       # number of LoadLockedReq miss cycles
system.cpu.dcache.LoadLockedReq_miss_latency::total       100000                       # number of LoadLockedReq miss cycles
system.cpu.dcache.LoadLockedReq_accesses::.cpu.data           51                       # number of LoadLockedReq accesses(hits+misses)
system.cpu.dcache.LoadLockedReq_accesses::total           51                       # number of LoadLockedReq accesses(hits+misses)
system.cpu.dcache.LoadLockedReq_miss_rate::.cpu.data     0.039216                       # miss rate for LoadLockedReq accesses
system.cpu.dcache.LoadLockedReq_miss_rate::total     0.039216                       # miss rate for LoadLockedReq accesses
system.cpu.dcache.LoadLockedReq_avg_miss_latency::.cpu.data        50000                       # average LoadLockedReq miss latency
system.cpu.dcache.LoadLockedReq_avg_miss_latency::total        50000                       # average LoadLockedReq miss latency
system.cpu.dcache.LoadLockedReq_mshr_hits::.cpu.data            2                       # number of LoadLockedReq MSHR hits
system.cpu.dcache.LoadLockedReq_mshr_hits::total            2                       # number of LoadLockedReq MSHR hits
system.cpu.dcache.StoreCondReq_hits::.cpu.data           51                       # number of StoreCondReq hits
system.cpu.dcache.StoreCondReq_hits::total           51                       # number of StoreCondReq hits
system.cpu.dcache.StoreCondReq_accesses::.cpu.data           51                       # number of StoreCondReq accesses(hits+misses)
system.cpu.dcache.StoreCondReq_accesses::total           51                       # number of StoreCondReq accesses(hits+misses)
system.cpu.dcache.power_state.pwrStateResidencyTicks::UNDEFINED  10697795000                       # Cumulative time (in ticks) in various power states
system.cpu.dcache.tags.tagsinuse           510.538753                       # Cycle average of tags in use
system.cpu.dcache.tags.total_refs            11413463                       # Total number of references to valid blocks.
system.cpu.dcache.tags.sampled_refs              1383                       # Sample count of references to valid blocks.
system.cpu.dcache.tags.avg_refs           8252.684743                       # Average number of references to valid blocks.
system.cpu.dcache.tags.warmup_cycle            149000                       # Cycle when the warmup percentage was hit.
system.cpu.dcache.tags.occ_blocks::.cpu.data   510.538753                       # Average occupied blocks per requestor
system.cpu.dcache.tags.occ_percent::.cpu.data     0.997146                       # Average percentage of cache occupancy
system.cpu.dcache.tags.occ_percent::total     0.997146                       # Average percentage of cache occupancy
system.cpu.dcache.tags.occ_task_id_blocks::1024          512                       # Occupied blocks per task id
system.cpu.dcache.tags.age_task_id_blocks_1024::0           42                       # Occupied blocks per task id
system.cpu.dcache.tags.age_task_id_blocks_1024::1           48                       # Occupied blocks per task id
system.cpu.dcache.tags.age_task_id_blocks_1024::4          422                       # Occupied blocks per task id
system.cpu.dcache.tags.occ_task_id_percent::1024            1                       # Percentage of cache occupancy per task id
system.cpu.dcache.tags.tag_accesses          45659899                       # Number of tag accesses
system.cpu.dcache.tags.data_accesses         45659899                       # Number of data accesses
system.cpu.dcache.tags.power_state.pwrStateResidencyTicks::UNDEFINED  10697795000                       # Cumulative time (in ticks) in various power states
system.cpu.decode.idleCycles                    82763                       # Number of cycles decode is idle
system.cpu.decode.blockedCycles                109337                       # Number of cycles decode is blocked
system.cpu.decode.runCycles                  16847880                       # Number of cycles decode is running
system.cpu.decode.unblockCycles                  3623                       # Number of cycles decode is unblocking
system.cpu.decode.squashCycles                  31920                       # Number of cycles decode is squashing
system.cpu.decode.branchResolved              2010194                       # Number of times decode resolved a  branch
system.cpu.decode.branchMispred                   455                       # Number of times decode detected a branch misprediction
system.cpu.decode.decodedInsts               34423069                       # Number of instructions handled by decode
system.cpu.decode.squashedInsts                131322                       # Number of squashed instructions handled by decode
system.cpu.dtb.instHits                             0                       # ITB inst hits
system.cpu.dtb.instMisses                           0                       # ITB inst misses
system.cpu.dtb.readHits                             0                       # DTB read hits
system.cpu.dtb.readMisses                           0                       # DTB read misses
system.cpu.dtb.writeHits                            0                       # DTB write hits
system.cpu.dtb.writeMisses                          0                       # DTB write misses
system.cpu.dtb.inserts                              0                       # Number of times an entry is inserted into the TLB
system.cpu.dtb.flushTlb                             0                       # Number of times complete TLB was flushed
system.cpu.dtb.flushTlbMva                          0                       # Number of times TLB was flushed by MVA
system.cpu.dtb.flushTlbMvaAsid                      0                       # Number of times TLB was flushed by MVA & ASID
system.cpu.dtb.flushTlbAsid                         0                       # Number of times TLB was flushed by ASID
system.cpu.dtb.flushedEntries                       0                       # Number of entries that have been flushed from TLB
system.cpu.dtb.alignFaults                          0                       # Number of TLB faults due to alignment restrictions
system.cpu.dtb.prefetchFaults                       0                       # Number of TLB faults due to prefetch
system.cpu.dtb.domainFaults                         0                       # Number of TLB faults due to domain restrictions
system.cpu.dtb.permsFaults                          0                       # Number of TLB faults due to permissions restrictions
system.cpu.dtb.readAccesses                         0                       # DTB read accesses
system.cpu.dtb.writeAccesses                        0                       # DTB write accesses
system.cpu.dtb.instAccesses                         0                       # ITB inst accesses
system.cpu.dtb.hits                                 0                       # Total TLB (inst and data) hits
system.cpu.dtb.misses                               0                       # Total TLB (inst and data) misses
system.cpu.dtb.accesses                             0                       # Total TLB (inst and data) accesses
system.cpu.dtb.stage2_mmu.stage2_tlb.instHits            0                       # ITB inst hits
system.cpu.dtb.stage2_mmu.stage2_tlb.instMisses            0                       # ITB inst misses
system.cpu.dtb.stage2_mmu.stage2_tlb.readHits            0                       # DTB read hits
system.cpu.dtb.stage2_mmu.stage2_tlb.readMisses            0                       # DTB read misses
system.cpu.dtb.stage2_mmu.stage2_tlb.writeHits            0                       # DTB write hits
system.cpu.dtb.stage2_mmu.stage2_tlb.writeMisses            0                       # DTB write misses
system.cpu.dtb.stage2_mmu.stage2_tlb.inserts            0                       # Number of times an entry is inserted into the TLB
system.cpu.dtb.stage2_mmu.stage2_tlb.flushTlb            0                       # Number of times complete TLB was flushed
system.cpu.dtb.stage2_mmu.stage2_tlb.flushTlbMva            0                       # Number of times TLB was flushed by MVA
system.cpu.dtb.stage2_mmu.stage2_tlb.flushTlbMvaAsid            0                       # Number of times TLB was flushed by MVA & ASID
system.cpu.dtb.stage2_mmu.stage2_tlb.flushTlbAsid            0                       # Number of times TLB was flushed by ASID
system.cpu.dtb.stage2_mmu.stage2_tlb.flushedEntries            0                       # Number of entries that have been flushed from TLB
system.cpu.dtb.stage2_mmu.stage2_tlb.alignFaults            0                       # Number of TLB faults due to alignment restrictions
system.cpu.dtb.stage2_mmu.stage2_tlb.prefetchFaults            0                       # Number of TLB faults due to prefetch
system.cpu.dtb.stage2_mmu.stage2_tlb.domainFaults            0                       # Number of TLB faults due to domain restrictions
system.cpu.dtb.stage2_mmu.stage2_tlb.permsFaults            0                       # Number of TLB faults due to permissions restrictions
system.cpu.dtb.stage2_mmu.stage2_tlb.readAccesses            0                       # DTB read accesses
system.cpu.dtb.stage2_mmu.stage2_tlb.writeAccesses            0                       # DTB write accesses
system.cpu.dtb.stage2_mmu.stage2_tlb.instAccesses            0                       # ITB inst accesses
system.cpu.dtb.stage2_mmu.stage2_tlb.hits            0                       # Total TLB (inst and data) hits
system.cpu.dtb.stage2_mmu.stage2_tlb.misses            0                       # Total TLB (inst and data) misses
system.cpu.dtb.stage2_mmu.stage2_tlb.accesses            0                       # Total TLB (inst and data) accesses
system.cpu.dtb.stage2_mmu.stage2_tlb.walker.walks            0                       # Table walker walks requested
system.cpu.dtb.stage2_mmu.stage2_tlb.walker.requestOrigin_Requested::Data            0                       # Table walker requests started/completed, data/inst
system.cpu.dtb.stage2_mmu.stage2_tlb.walker.requestOrigin_Requested::Inst            0                       # Table walker requests started/completed, data/inst
system.cpu.dtb.stage2_mmu.stage2_tlb.walker.requestOrigin_Requested::total            0                       # Table walker requests started/completed, data/inst
system.cpu.dtb.stage2_mmu.stage2_tlb.walker.requestOrigin_Completed::Data            0                       # Table walker requests started/completed, data/inst
system.cpu.dtb.stage2_mmu.stage2_tlb.walker.requestOrigin_Completed::Inst            0                       # Table walker requests started/completed, data/inst
system.cpu.dtb.stage2_mmu.stage2_tlb.walker.requestOrigin_Completed::total            0                       # Table walker requests started/completed, data/inst
system.cpu.dtb.stage2_mmu.stage2_tlb.walker.requestOrigin::total            0                       # Table walker requests started/completed, data/inst
system.cpu.dtb.stage2_mmu.stage2_tlb.walker.power_state.pwrStateResidencyTicks::UNDEFINED  10697795000                       # Cumulative time (in ticks) in various power states
system.cpu.dtb.walker.walks                         0                       # Table walker walks requested
system.cpu.dtb.walker.requestOrigin_Requested::Data            0                       # Table walker requests started/completed, data/inst
system.cpu.dtb.walker.requestOrigin_Requested::Inst            0                       # Table walker requests started/completed, data/inst
system.cpu.dtb.walker.requestOrigin_Requested::total            0                       # Table walker requests started/completed, data/inst
system.cpu.dtb.walker.requestOrigin_Completed::Data            0                       # Table walker requests started/completed, data/inst
system.cpu.dtb.walker.requestOrigin_Completed::Inst            0                       # Table walker requests started/completed, data/inst
system.cpu.dtb.walker.requestOrigin_Completed::total            0                       # Table walker requests started/completed, data/inst
system.cpu.dtb.walker.requestOrigin::total            0                       # Table walker requests started/completed, data/inst
system.cpu.dtb.walker.power_state.pwrStateResidencyTicks::UNDEFINED  10697795000                       # Cumulative time (in ticks) in various power states
system.cpu.dtb_walker_cache.blocked_cycles::no_mshrs            0                       # number of cycles access was blocked
system.cpu.dtb_walker_cache.blocked_cycles::no_targets            0                       # number of cycles access was blocked
system.cpu.dtb_walker_cache.blocked::no_mshrs            0                       # number of cycles access was blocked
system.cpu.dtb_walker_cache.blocked::no_targets            0                       # number of cycles access was blocked
system.cpu.dtb_walker_cache.avg_blocked_cycles::no_mshrs          nan                       # average number of cycles each access was blocked
system.cpu.dtb_walker_cache.avg_blocked_cycles::no_targets          nan                       # average number of cycles each access was blocked
system.cpu.dtb_walker_cache.replacements            0                       # number of replacements
system.cpu.dtb_walker_cache.power_state.pwrStateResidencyTicks::UNDEFINED  10697795000                       # Cumulative time (in ticks) in various power states
system.cpu.dtb_walker_cache.tags.tagsinuse            0                       # Cycle average of tags in use
system.cpu.dtb_walker_cache.tags.total_refs            0                       # Total number of references to valid blocks.
system.cpu.dtb_walker_cache.tags.sampled_refs            0                       # Sample count of references to valid blocks.
system.cpu.dtb_walker_cache.tags.avg_refs          nan                       # Average number of references to valid blocks.
system.cpu.dtb_walker_cache.tags.warmup_cycle            0                       # Cycle when the warmup percentage was hit.
system.cpu.dtb_walker_cache.tags.tag_accesses            0                       # Number of tag accesses
system.cpu.dtb_walker_cache.tags.data_accesses            0                       # Number of data accesses
system.cpu.dtb_walker_cache.tags.power_state.pwrStateResidencyTicks::UNDEFINED  10697795000                       # Cumulative time (in ticks) in various power states
system.cpu.fetch.icacheStallCycles              48596                       # Number of cycles fetch is stalled on an Icache miss
system.cpu.fetch.insts                       34377678                       # Number of instructions fetch has processed
system.cpu.fetch.branches                     3224720                       # Number of branches that fetch encountered
system.cpu.fetch.predictedBranches            3218594                       # Number of branches that fetch has predicted taken
system.cpu.fetch.cycles                      16993522                       # Number of cycles fetch has run and was not squashing or blocked
system.cpu.fetch.squashCycles                   64728                       # Number of cycles fetch has spent squashing
system.cpu.fetch.miscStallCycles                  267                       # Number of cycles fetch has spent waiting on interrupts,or bad addresses, or out of MSHRs
system.cpu.fetch.pendingTrapStallCycles            79                       # Number of stall cycles due to pending traps
system.cpu.fetch.icacheWaitRetryStallCycles          695                       # Number of stall cycles due to full MSHR
system.cpu.fetch.cacheLines                  10963317                       # Number of cache lines fetched
system.cpu.fetch.icacheSquashes                   468                       # Number of outstanding Icache misses that were squashed
system.cpu.fetch.nisnDist::samples           17075523                       # Number of instructions fetched each cycle (Total)
system.cpu.fetch.nisnDist::mean              2.028187                       # Number of instructions fetched each cycle (Total)
system.cpu.fetch.nisnDist::stdev             0.953291                       # Number of instructions fetched each cycle (Total)
system.cpu.fetch.nisnDist::underflows               0      0.00%      0.00% # Number of instructions fetched each cycle (Total)
system.cpu.fetch.nisnDist::0                   132027      0.77%      0.77% # Number of instructions fetched each cycle (Total)
system.cpu.fetch.nisnDist::1                  7128858     41.75%     42.52% # Number of instructions fetched each cycle (Total)
system.cpu.fetch.nisnDist::2                  1940410     11.36%     53.89% # Number of instructions fetched each cycle (Total)
system.cpu.fetch.nisnDist::3                  7874228     46.11%    100.00% # Number of instructions fetched each cycle (Total)
system.cpu.fetch.nisnDist::overflows                0      0.00%    100.00% # Number of instructions fetched each cycle (Total)
system.cpu.fetch.nisnDist::min_value                0                       # Number of instructions fetched each cycle (Total)
system.cpu.fetch.nisnDist::max_value                3                       # Number of instructions fetched each cycle (Total)
system.cpu.fetch.nisnDist::total             17075523                       # Number of instructions fetched each cycle (Total)
system.cpu.fetch.branchRate                  0.188399                       # Number of branch fetches per cycle
system.cpu.fetch.rate                        2.008456                       # Number of inst fetches per cycle
system.cpu.icache.demand_hits::.cpu.inst     10962369                       # number of demand (read+write) hits
system.cpu.icache.demand_hits::total         10962369                       # number of demand (read+write) hits
system.cpu.icache.overall_hits::.cpu.inst     10962369                       # number of overall hits
system.cpu.icache.overall_hits::total        10962369                       # number of overall hits
system.cpu.icache.demand_misses::.cpu.inst          942                       # number of demand (read+write) misses
system.cpu.icache.demand_misses::total            942                       # number of demand (read+write) misses
system.cpu.icache.overall_misses::.cpu.inst          942                       # number of overall misses
system.cpu.icache.overall_misses::total           942                       # number of overall misses
system.cpu.icache.demand_miss_latency::.cpu.inst     53827734                       # number of demand (read+write) miss cycles
system.cpu.icache.demand_miss_latency::total     53827734                       # number of demand (read+write) miss cycles
system.cpu.icache.overall_miss_latency::.cpu.inst     53827734                       # number of overall miss cycles
system.cpu.icache.overall_miss_latency::total     53827734                       # number of overall miss cycles
system.cpu.icache.demand_accesses::.cpu.inst     10963311                       # number of demand (read+write) accesses
system.cpu.icache.demand_accesses::total     10963311                       # number of demand (read+write) accesses
system.cpu.icache.overall_accesses::.cpu.inst     10963311                       # number of overall (read+write) accesses
system.cpu.icache.overall_accesses::total     10963311                       # number of overall (read+write) accesses
system.cpu.icache.demand_miss_rate::.cpu.inst     0.000086                       # miss rate for demand accesses
system.cpu.icache.demand_miss_rate::total     0.000086                       # miss rate for demand accesses
system.cpu.icache.overall_miss_rate::.cpu.inst     0.000086                       # miss rate for overall accesses
system.cpu.icache.overall_miss_rate::total     0.000086                       # miss rate for overall accesses
system.cpu.icache.demand_avg_miss_latency::.cpu.inst 57141.968153                       # average overall miss latency
system.cpu.icache.demand_avg_miss_latency::total 57141.968153                       # average overall miss latency
system.cpu.icache.overall_avg_miss_latency::.cpu.inst 57141.968153                       # average overall miss latency
system.cpu.icache.overall_avg_miss_latency::total 57141.968153                       # average overall miss latency
system.cpu.icache.blocked_cycles::no_mshrs        12965                       # number of cycles access was blocked
system.cpu.icache.blocked_cycles::no_targets            0                       # number of cycles access was blocked
system.cpu.icache.blocked::no_mshrs               203                       # number of cycles access was blocked
system.cpu.icache.blocked::no_targets               0                       # number of cycles access was blocked
system.cpu.icache.avg_blocked_cycles::no_mshrs    63.866995                       # average number of cycles each access was blocked
system.cpu.icache.avg_blocked_cycles::no_targets          nan                       # average number of cycles each access was blocked
system.cpu.icache.writebacks::.writebacks          294                       # number of writebacks
system.cpu.icache.writebacks::total               294                       # number of writebacks
system.cpu.icache.demand_mshr_hits::.cpu.inst          155                       # number of demand (read+write) MSHR hits
system.cpu.icache.demand_mshr_hits::total          155                       # number of demand (read+write) MSHR hits
system.cpu.icache.overall_mshr_hits::.cpu.inst          155                       # number of overall MSHR hits
system.cpu.icache.overall_mshr_hits::total          155                       # number of overall MSHR hits
system.cpu.icache.demand_mshr_misses::.cpu.inst          787                       # number of demand (read+write) MSHR misses
system.cpu.icache.demand_mshr_misses::total          787                       # number of demand (read+write) MSHR misses
system.cpu.icache.overall_mshr_misses::.cpu.inst          787                       # number of overall MSHR misses
system.cpu.icache.overall_mshr_misses::total          787                       # number of overall MSHR misses
system.cpu.icache.demand_mshr_miss_latency::.cpu.inst     46916487                       # number of demand (read+write) MSHR miss cycles
system.cpu.icache.demand_mshr_miss_latency::total     46916487                       # number of demand (read+write) MSHR miss cycles
system.cpu.icache.overall_mshr_miss_latency::.cpu.inst     46916487                       # number of overall MSHR miss cycles
system.cpu.icache.overall_mshr_miss_latency::total     46916487                       # number of overall MSHR miss cycles
system.cpu.icache.demand_mshr_miss_rate::.cpu.inst     0.000072                       # mshr miss rate for demand accesses
system.cpu.icache.demand_mshr_miss_rate::total     0.000072                       # mshr miss rate for demand accesses
system.cpu.icache.overall_mshr_miss_rate::.cpu.inst     0.000072                       # mshr miss rate for overall accesses
system.cpu.icache.overall_mshr_miss_rate::total     0.000072                       # mshr miss rate for overall accesses
system.cpu.icache.demand_avg_mshr_miss_latency::.cpu.inst 59614.341804                       # average overall mshr miss latency
system.cpu.icache.demand_avg_mshr_miss_latency::total 59614.341804                       # average overall mshr miss latency
system.cpu.icache.overall_avg_mshr_miss_latency::.cpu.inst 59614.341804                       # average overall mshr miss latency
system.cpu.icache.overall_avg_mshr_miss_latency::total 59614.341804                       # average overall mshr miss latency
system.cpu.icache.replacements                    294                       # number of replacements
system.cpu.icache.ReadReq_hits::.cpu.inst     10962369                       # number of ReadReq hits
system.cpu.icache.ReadReq_hits::total        10962369                       # number of ReadReq hits
system.cpu.icache.ReadReq_misses::.cpu.inst          942                       # number of ReadReq misses
system.cpu.icache.ReadReq_misses::total           942                       # number of ReadReq misses
system.cpu.icache.ReadReq_miss_latency::.cpu.inst     53827734                       # number of ReadReq miss cycles
system.cpu.icache.ReadReq_miss_latency::total     53827734                       # number of ReadReq miss cycles
system.cpu.icache.ReadReq_accesses::.cpu.inst     10963311                       # number of ReadReq accesses(hits+misses)
system.cpu.icache.ReadReq_accesses::total     10963311                       # number of ReadReq accesses(hits+misses)
system.cpu.icache.ReadReq_miss_rate::.cpu.inst     0.000086                       # miss rate for ReadReq accesses
system.cpu.icache.ReadReq_miss_rate::total     0.000086                       # miss rate for ReadReq accesses
system.cpu.icache.ReadReq_avg_miss_latency::.cpu.inst 57141.968153                       # average ReadReq miss latency
system.cpu.icache.ReadReq_avg_miss_latency::total 57141.968153                       # average ReadReq miss latency
system.cpu.icache.ReadReq_mshr_hits::.cpu.inst          155                       # number of ReadReq MSHR hits
system.cpu.icache.ReadReq_mshr_hits::total          155                       # number of ReadReq MSHR hits
system.cpu.icache.ReadReq_mshr_misses::.cpu.inst          787                       # number of ReadReq MSHR misses
system.cpu.icache.ReadReq_mshr_misses::total          787                       # number of ReadReq MSHR misses
system.cpu.icache.ReadReq_mshr_miss_latency::.cpu.inst     46916487                       # number of ReadReq MSHR miss cycles
system.cpu.icache.ReadReq_mshr_miss_latency::total     46916487                       # number of ReadReq MSHR miss cycles
system.cpu.icache.ReadReq_mshr_miss_rate::.cpu.inst     0.000072                       # mshr miss rate for ReadReq accesses
system.cpu.icache.ReadReq_mshr_miss_rate::total     0.000072                       # mshr miss rate for ReadReq accesses
system.cpu.icache.ReadReq_avg_mshr_miss_latency::.cpu.inst 59614.341804                       # average ReadReq mshr miss latency
system.cpu.icache.ReadReq_avg_mshr_miss_latency::total 59614.341804                       # average ReadReq mshr miss latency
system.cpu.icache.power_state.pwrStateResidencyTicks::UNDEFINED  10697795000                       # Cumulative time (in ticks) in various power states
system.cpu.icache.tags.tagsinuse           413.340594                       # Cycle average of tags in use
system.cpu.icache.tags.total_refs            10963156                       # Total number of references to valid blocks.
system.cpu.icache.tags.sampled_refs               787                       # Sample count of references to valid blocks.
system.cpu.icache.tags.avg_refs          13930.312579                       # Average number of references to valid blocks.
system.cpu.icache.tags.warmup_cycle             77000                       # Cycle when the warmup percentage was hit.
system.cpu.icache.tags.occ_blocks::.cpu.inst   413.340594                       # Average occupied blocks per requestor
system.cpu.icache.tags.occ_percent::.cpu.inst     0.807306                       # Average percentage of cache occupancy
system.cpu.icache.tags.occ_percent::total     0.807306                       # Average percentage of cache occupancy
system.cpu.icache.tags.occ_task_id_blocks::1024          493                       # Occupied blocks per task id
system.cpu.icache.tags.age_task_id_blocks_1024::0           76                       # Occupied blocks per task id
system.cpu.icache.tags.age_task_id_blocks_1024::1          192                       # Occupied blocks per task id
system.cpu.icache.tags.age_task_id_blocks_1024::4          225                       # Occupied blocks per task id
system.cpu.icache.tags.occ_task_id_percent::1024     0.962891                       # Percentage of cache occupancy per task id
system.cpu.icache.tags.tag_accesses          43854031                       # Number of tag accesses
system.cpu.icache.tags.data_accesses         43854031                       # Number of data accesses
system.cpu.icache.tags.power_state.pwrStateResidencyTicks::UNDEFINED  10697795000                       # Cumulative time (in ticks) in various power states
system.cpu.itb.instHits                             0                       # ITB inst hits
system.cpu.itb.instMisses                           0                       # ITB inst misses
system.cpu.itb.readHits                             0                       # DTB read hits
system.cpu.itb.readMisses                           0                       # DTB read misses
system.cpu.itb.writeHits                            0                       # DTB write hits
system.cpu.itb.writeMisses                          0                       # DTB write misses
system.cpu.itb.inserts                              0                       # Number of times an entry is inserted into the TLB
system.cpu.itb.flushTlb                             0                       # Number of times complete TLB was flushed
system.cpu.itb.flushTlbMva                          0                       # Number of times TLB was flushed by MVA
system.cpu.itb.flushTlbMvaAsid                      0                       # Number of times TLB was flushed by MVA & ASID
system.cpu.itb.flushTlbAsid                         0                       # Number of times TLB was flushed by ASID
system.cpu.itb.flushedEntries                       0                       # Number of entries that have been flushed from TLB
system.cpu.itb.alignFaults                          0                       # Number of TLB faults due to alignment restrictions
system.cpu.itb.prefetchFaults                       0                       # Number of TLB faults due to prefetch
system.cpu.itb.domainFaults                         0                       # Number of TLB faults due to domain restrictions
system.cpu.itb.permsFaults                          0                       # Number of TLB faults due to permissions restrictions
system.cpu.itb.readAccesses                         0                       # DTB read accesses
system.cpu.itb.writeAccesses                        0                       # DTB write accesses
system.cpu.itb.instAccesses                         0                       # ITB inst accesses
system.cpu.itb.hits                                 0                       # Total TLB (inst and data) hits
system.cpu.itb.misses                               0                       # Total TLB (inst and data) misses
system.cpu.itb.accesses                             0                       # Total TLB (inst and data) accesses
system.cpu.itb.stage2_mmu.stage2_tlb.instHits            0                       # ITB inst hits
system.cpu.itb.stage2_mmu.stage2_tlb.instMisses            0                       # ITB inst misses
system.cpu.itb.stage2_mmu.stage2_tlb.readHits            0                       # DTB read hits
system.cpu.itb.stage2_mmu.stage2_tlb.readMisses            0                       # DTB read misses
system.cpu.itb.stage2_mmu.stage2_tlb.writeHits            0                       # DTB write hits
system.cpu.itb.stage2_mmu.stage2_tlb.writeMisses            0                       # DTB write misses
system.cpu.itb.stage2_mmu.stage2_tlb.inserts            0                       # Number of times an entry is inserted into the TLB
system.cpu.itb.stage2_mmu.stage2_tlb.flushTlb            0                       # Number of times complete TLB was flushed
[...]
system.mem_ctrls.requestorReadTotalLat::.cpu.data     40011375                       # Per-requestor read total memory access latency
system.mem_ctrls.requestorWriteTotalLat::.writebacks 203513092375                       # Per-requestor write total memory access latency
system.mem_ctrls.requestorReadAvgLat::.cpu.inst     28171.22                       # Per-requestor read average memory access latency
system.mem_ctrls.requestorReadAvgLat::.cpu.data     28930.86                       # Per-requestor read average memory access latency
system.mem_ctrls.requestorWriteAvgLat::.writebacks 180259603.52                       # Per-requestor write average memory access latency
system.mem_ctrls.dram.bytes_read::.cpu.inst        50368                       # Number of bytes read from this memory
system.mem_ctrls.dram.bytes_read::.cpu.data        88512                       # Number of bytes read from this memory
system.mem_ctrls.dram.bytes_read::total        138880                       # Number of bytes read from this memory
system.mem_ctrls.dram.bytes_inst_read::.cpu.inst        50368                       # Number of instructions bytes read from this memory
system.mem_ctrls.dram.bytes_inst_read::total        50368                       # Number of instructions bytes read from this memory
system.mem_ctrls.dram.bytes_written::.writebacks        49920                       # Number of bytes written to this memory
system.mem_ctrls.dram.bytes_written::total        49920                       # Number of bytes written to this memory
system.mem_ctrls.dram.num_reads::.cpu.inst          787                       # Number of read requests responded to by this memory
system.mem_ctrls.dram.num_reads::.cpu.data         1383                       # Number of read requests responded to by this memory
system.mem_ctrls.dram.num_reads::total           2170                       # Number of read requests responded to by this memory
system.mem_ctrls.dram.num_writes::.writebacks          780                       # Number of write requests responded to by this memory
system.mem_ctrls.dram.num_writes::total           780                       # Number of write requests responded to by this memory
system.mem_ctrls.dram.bw_read::.cpu.inst      4708260                       # Total read bandwidth from this memory (bytes/s)
system.mem_ctrls.dram.bw_read::.cpu.data      8273855                       # Total read bandwidth from this memory (bytes/s)
system.mem_ctrls.dram.bw_read::total         12982115                       # Total read bandwidth from this memory (bytes/s)
system.mem_ctrls.dram.bw_inst_read::.cpu.inst      4708260                       # Instruction read bandwidth from this memory (bytes/s)
system.mem_ctrls.dram.bw_inst_read::total      4708260                       # Instruction read bandwidth from this memory (bytes/s)
system.mem_ctrls.dram.bw_write::.writebacks      4666382                       # Write bandwidth from this memory (bytes/s)
system.mem_ctrls.dram.bw_write::total         4666382                       # Write bandwidth from this memory (bytes/s)
system.mem_ctrls.dram.bw_total::.writebacks      4666382                       # Total bandwidth to/from this memory (bytes/s)
system.mem_ctrls.dram.bw_total::.cpu.inst      4708260                       # Total bandwidth to/from this memory (bytes/s)
system.mem_ctrls.dram.bw_total::.cpu.data      8273855                       # Total bandwidth to/from this memory (bytes/s)
system.mem_ctrls.dram.bw_total::total        17648497                       # Total bandwidth to/from this memory (bytes/s)
system.mem_ctrls.dram.readBursts                 2161                       # Number of DRAM read bursts
system.mem_ctrls.dram.writeBursts                1102                       # Number of DRAM write bursts
system.mem_ctrls.dram.perBankRdBursts::0          228                       # Per bank write bursts
system.mem_ctrls.dram.perBankRdBursts::1           75                       # Per bank write bursts
system.mem_ctrls.dram.perBankRdBursts::2           90                       # Per bank write bursts
system.mem_ctrls.dram.perBankRdBursts::3          124                       # Per bank write bursts
system.mem_ctrls.dram.perBankRdBursts::4          134                       # Per bank write bursts
system.mem_ctrls.dram.perBankRdBursts::5           90                       # Per bank write bursts
system.mem_ctrls.dram.perBankRdBursts::6           83                       # Per bank write bursts
system.mem_ctrls.dram.perBankRdBursts::7           80                       # Per bank write bursts
system.mem_ctrls.dram.perBankRdBursts::8          170                       # Per bank write bursts
system.mem_ctrls.dram.perBankRdBursts::9          166                       # Per bank write bursts
system.mem_ctrls.dram.perBankRdBursts::10          183                       # Per bank write bursts
system.mem_ctrls.dram.perBankRdBursts::11          163                       # Per bank write bursts
system.mem_ctrls.dram.perBankRdBursts::12          165                       # Per bank write bursts
system.mem_ctrls.dram.perBankRdBursts::13          128                       # Per bank write bursts
system.mem_ctrls.dram.perBankRdBursts::14          136                       # Per bank write bursts
system.mem_ctrls.dram.perBankRdBursts::15          146                       # Per bank write bursts
system.mem_ctrls.dram.perBankWrBursts::0          129                       # Per bank write bursts
system.mem_ctrls.dram.perBankWrBursts::1           21                       # Per bank write bursts
system.mem_ctrls.dram.perBankWrBursts::2           32                       # Per bank write bursts
system.mem_ctrls.dram.perBankWrBursts::3           17                       # Per bank write bursts
system.mem_ctrls.dram.perBankWrBursts::4           64                       # Per bank write bursts
system.mem_ctrls.dram.perBankWrBursts::5           44                       # Per bank write bursts
system.mem_ctrls.dram.perBankWrBursts::6           26                       # Per bank write bursts
system.mem_ctrls.dram.perBankWrBursts::7           28                       # Per bank write bursts
system.mem_ctrls.dram.perBankWrBursts::8           86                       # Per bank write bursts
system.mem_ctrls.dram.perBankWrBursts::9          104                       # Per bank write bursts
system.mem_ctrls.dram.perBankWrBursts::10           70                       # Per bank write bursts
system.mem_ctrls.dram.perBankWrBursts::11           54                       # Per bank write bursts
system.mem_ctrls.dram.perBankWrBursts::12           78                       # Per bank write bursts
system.mem_ctrls.dram.perBankWrBursts::13          121                       # Per bank write bursts
system.mem_ctrls.dram.perBankWrBursts::14          116                       # Per bank write bursts
system.mem_ctrls.dram.perBankWrBursts::15          112                       # Per bank write bursts
system.mem_ctrls.dram.totQLat                21663375                       # Total ticks spent queuing
system.mem_ctrls.dram.totBusLat              10805000                       # Total ticks spent in databus transfers
system.mem_ctrls.dram.totMemAccLat           62182125                       # Total ticks spent from burst creation until serviced by the DRAM
system.mem_ctrls.dram.avgQLat                10024.70                       # Average queueing delay per DRAM burst
system.mem_ctrls.dram.avgBusLat               5000.00                       # Average bus latency per DRAM burst
system.mem_ctrls.dram.avgMemAccLat           28774.70                       # Average memory access latency per DRAM burst
system.mem_ctrls.dram.readRowHits                1828                       # Number of row buffer hits during reads
system.mem_ctrls.dram.writeRowHits                905                       # Number of row buffer hits during writes
system.mem_ctrls.dram.readRowHitRate            84.59                       # Row buffer hit rate for reads
system.mem_ctrls.dram.writeRowHitRate           82.12                       # Row buffer hit rate for writes
system.mem_ctrls.dram.bytesPerActivate::samples          519                       # Bytes accessed per row activation
system.mem_ctrls.dram.bytesPerActivate::mean   398.181118                       # Bytes accessed per row activation
system.mem_ctrls.dram.bytesPerActivate::gmean   248.888969                       # Bytes accessed per row activation
system.mem_ctrls.dram.bytesPerActivate::stdev   355.998555                       # Bytes accessed per row activation
system.mem_ctrls.dram.bytesPerActivate::0-127          127     24.47%     24.47% # Bytes accessed per row activation
system.mem_ctrls.dram.bytesPerActivate::128-255          116     22.35%     46.82% # Bytes accessed per row activation
system.mem_ctrls.dram.bytesPerActivate::256-383           71     13.68%     60.50% # Bytes accessed per row activation
system.mem_ctrls.dram.bytesPerActivate::384-511           39      7.51%     68.02% # Bytes accessed per row activation
system.mem_ctrls.dram.bytesPerActivate::512-639           28      5.39%     73.41% # Bytes accessed per row activation
system.mem_ctrls.dram.bytesPerActivate::640-767           23      4.43%     77.84% # Bytes accessed per row activation
system.mem_ctrls.dram.bytesPerActivate::768-895           12      2.31%     80.15% # Bytes accessed per row activation
system.mem_ctrls.dram.bytesPerActivate::896-1023           10      1.93%     82.08% # Bytes accessed per row activation
system.mem_ctrls.dram.bytesPerActivate::1024-1151           93     17.92%    100.00% # Bytes accessed per row activation
system.mem_ctrls.dram.bytesPerActivate::total          519                       # Bytes accessed per row activation
system.mem_ctrls.dram.bytesRead                138304                       # Total number of bytes read from DRAM
system.mem_ctrls.dram.bytesWritten              70528                       # Total number of bytes written to DRAM
system.mem_ctrls.dram.avgRdBW               12.928272                       # Average DRAM read bandwidth in MiBytes/s
system.mem_ctrls.dram.avgWrBW                6.592760                       # Average DRAM write bandwidth in MiBytes/s
system.mem_ctrls.dram.peakBW                 12800.00                       # Theoretical peak bandwidth in MiByte/s
system.mem_ctrls.dram.busUtil                    0.15                       # Data bus utilization in percentage
system.mem_ctrls.dram.busUtilRead                0.10                       # Data bus utilization in percentage for reads
system.mem_ctrls.dram.busUtilWrite               0.05                       # Data bus utilization in percentage for writes
system.mem_ctrls.dram.pageHitRate               83.76                       # Row buffer hit rate, read and write combined
system.mem_ctrls.dram.power_state.pwrStateResidencyTicks::UNDEFINED  10697795000                       # Cumulative time (in ticks) in various power states
system.mem_ctrls.dram.rank0.actEnergy         1692180                       # Energy for activate commands per rank (pJ)
system.mem_ctrls.dram.rank0.preEnergy          880440                       # Energy for precharge commands per rank (pJ)
system.mem_ctrls.dram.rank0.readEnergy        6454560                       # Energy for read commands per rank (pJ)
system.mem_ctrls.dram.rank0.writeEnergy       1884420                       # Energy for write commands per rank (pJ)
system.mem_ctrls.dram.rank0.refreshEnergy 843900720.000000                       # Energy for refresh commands per rank (pJ)
system.mem_ctrls.dram.rank0.actBackEnergy    201335970                       # Energy for active background per rank (pJ)
system.mem_ctrls.dram.rank0.preBackEnergy   3938407200                       # Energy for precharge background per rank (pJ)
system.mem_ctrls.dram.rank0.actPowerDownEnergy            0                       # Energy for active power-down per rank (pJ)
system.mem_ctrls.dram.rank0.prePowerDownEnergy            0                       # Energy for precharge power-down per rank (pJ)
system.mem_ctrls.dram.rank0.selfRefreshEnergy            0                       # Energy for self refresh per rank (pJ)
system.mem_ctrls.dram.rank0.totalEnergy    4994555490                       # Total energy per rank (pJ)
system.mem_ctrls.dram.rank0.averagePower   466.877099                       # Core power per rank (mW)
system.mem_ctrls.dram.rank0.totalIdleTime            0                       # Total Idle time Per DRAM Rank
system.mem_ctrls.dram.rank0.pwrStateTime::IDLE  10237099375                       # Time in different power states
system.mem_ctrls.dram.rank0.pwrStateTime::REF    356980000                       # Time in different power states
system.mem_ctrls.dram.rank0.pwrStateTime::SREF            0                       # Time in different power states
system.mem_ctrls.dram.rank0.pwrStateTime::PRE_PDN            0                       # Time in different power states
system.mem_ctrls.dram.rank0.pwrStateTime::ACT    103715625                       # Time in different power states
system.mem_ctrls.dram.rank0.pwrStateTime::ACT_PDN            0                       # Time in different power states
system.mem_ctrls.dram.rank1.actEnergy         2092020                       # Energy for activate commands per rank (pJ)
system.mem_ctrls.dram.rank1.preEnergy         1089165                       # Energy for precharge commands per rank (pJ)
system.mem_ctrls.dram.rank1.readEnergy        8974980                       # Energy for read commands per rank (pJ)
system.mem_ctrls.dram.rank1.writeEnergy       3868020                       # Energy for write commands per rank (pJ)
system.mem_ctrls.dram.rank1.refreshEnergy 843900720.000000                       # Energy for refresh commands per rank (pJ)
system.mem_ctrls.dram.rank1.actBackEnergy    206796000                       # Energy for active background per rank (pJ)
system.mem_ctrls.dram.rank1.preBackEnergy   3933809280                       # Energy for precharge background per rank (pJ)
system.mem_ctrls.dram.rank1.actPowerDownEnergy            0                       # Energy for active power-down per rank (pJ)
system.mem_ctrls.dram.rank1.prePowerDownEnergy            0                       # Energy for precharge power-down per rank (pJ)
system.mem_ctrls.dram.rank1.selfRefreshEnergy            0                       # Energy for self refresh per rank (pJ)
system.mem_ctrls.dram.rank1.totalEnergy    5000530185                       # Total energy per rank (pJ)
system.mem_ctrls.dram.rank1.averagePower   467.435596                       # Core power per rank (mW)
system.mem_ctrls.dram.rank1.totalIdleTime            0                       # Total Idle time Per DRAM Rank
system.mem_ctrls.dram.rank1.pwrStateTime::IDLE  10225141000                       # Time in different power states
system.mem_ctrls.dram.rank1.pwrStateTime::REF    356980000                       # Time in different power states
system.mem_ctrls.dram.rank1.pwrStateTime::SREF            0                       # Time in different power states
system.mem_ctrls.dram.rank1.pwrStateTime::PRE_PDN            0                       # Time in different power states
system.mem_ctrls.dram.rank1.pwrStateTime::ACT    115674000                       # Time in different power states
system.mem_ctrls.dram.rank1.pwrStateTime::ACT_PDN            0                       # Time in different power states
system.mem_ctrls.power_state.pwrStateResidencyTicks::UNDEFINED  10697795000                       # Cumulative time (in ticks) in various power states
system.membus.trans_dist::ReadResp               1012                       # Transaction distribution
system.membus.trans_dist::WritebackDirty          780                       # Transaction distribution
system.membus.trans_dist::WritebackClean          385                       # Transaction distribution
system.membus.trans_dist::ReadExReq              1158                       # Transaction distribution
system.membus.trans_dist::ReadExResp             1158                       # Transaction distribution
system.membus.trans_dist::ReadCleanReq            787                       # Transaction distribution
system.membus.trans_dist::ReadSharedReq           225                       # Transaction distribution
system.membus.pkt_count_system.cpu.icache.mem_side_port::system.mem_ctrls.port         1868                       # Packet count per connected requestor and responder (bytes)
system.membus.pkt_count_system.cpu.dcache.mem_side_port::system.mem_ctrls.port         3637                       # Packet count per connected requestor and responder (bytes)
system.membus.pkt_count::total                   5505                       # Packet count per connected requestor and responder (bytes)
system.membus.pkt_size_system.cpu.icache.mem_side_port::system.mem_ctrls.port        69184                       # Cumulative packet size per connected requestor and responder (bytes)
system.membus.pkt_size_system.cpu.dcache.mem_side_port::system.mem_ctrls.port       144256                       # Cumulative packet size per connected requestor and responder (bytes)
system.membus.pkt_size::total                  213440                       # Cumulative packet size per connected requestor and responder (bytes)
system.membus.snoops                                0                       # Total snoops (count)
system.membus.snoopTraffic                          0                       # Total snoop traffic (bytes)
system.membus.snoop_fanout::samples              2170                       # Request fanout histogram
system.membus.snoop_fanout::mean             0.024424                       # Request fanout histogram
system.membus.snoop_fanout::stdev            0.154397                       # Request fanout histogram
system.membus.snoop_fanout::underflows              0      0.00%      0.00% # Request fanout histogram
system.membus.snoop_fanout::0                    2117     97.56%     97.56% # Request fanout histogram
system.membus.snoop_fanout::1                      53      2.44%    100.00% # Request fanout histogram
system.membus.snoop_fanout::2                       0      0.00%    100.00% # Request fanout histogram
system.membus.snoop_fanout::3                       0      0.00%    100.00% # Request fanout histogram
system.membus.snoop_fanout::4                       0      0.00%    100.00% # Request fanout histogram
system.membus.snoop_fanout::overflows               0      0.00%    100.00% # Request fanout histogram
system.membus.snoop_fanout::min_value               0                       # Request fanout histogram
system.membus.snoop_fanout::max_value               1                       # Request fanout histogram
system.membus.snoop_fanout::total                2170                       # Request fanout histogram
system.membus.power_state.pwrStateResidencyTicks::UNDEFINED  10697795000                       # Cumulative time (in ticks) in various power states
system.membus.reqLayer0.occupancy             9224500                       # Layer occupancy (ticks)
system.membus.reqLayer0.utilization               0.1                       # Layer utilization (%)
system.membus.respLayer1.occupancy            4177500                       # Layer occupancy (ticks)
system.membus.respLayer1.utilization              0.0                       # Layer utilization (%)
system.membus.respLayer2.occupancy            7289625                       # Layer occupancy (ticks)
system.membus.respLayer2.utilization              0.1                       # Layer utilization (%)
system.voltage_domain.voltage                       1                       # Voltage in Volts

---------- End Simulation Statistics   ----------
