
---------- Begin Simulation Statistics ----------
final_tick                                10698958125                       # Number of ticks from beginning of simulation (restored from checkpoints and never reset)
host_inst_rate                                 311016                       # Simulator instruction rate (inst/s)
host_mem_usage                                 658088                       # Number of bytes of host memory used
host_op_rate                                   313091                       # Simulator op (including micro ops) rate (op/s)
host_seconds                                   107.50                       # Real time elapsed on the host
host_tick_rate                               99520724                       # Simulator tick rate (ticks/s)
sim_freq                                 1000000000000                       # Frequency of simulated ticks
sim_insts                                    33435691                       # Number of instructions simulated
sim_ops                                      33658812                       # Number of ops (including micro ops) simulated
sim_seconds                                  0.010699                       # Number of seconds simulated
sim_ticks                                 10698958125                       # Number of ticks simulated
system.cpu.cc_regfile_reads                 127448481                       # number of cc regfile reads
system.cpu.cc_regfile_writes                  3327361                       # number of cc regfile writes
system.cpu.committedInsts                    33435691                       # Number of Instructions Simulated
system.cpu.committedOps                      33658812                       # Number of Ops (including micro ops) Simulated
system.cpu.cpi                               0.511978                       # CPI: Cycles Per Instruction
system.cpu.cpi_total                         0.511978                       # CPI: Total CPI of All Threads
system.cpu.idleCycles                           40810                       # Total number of cycles that the CPU has spent unscheduled due to idling
system.cpu.iew.branchMispredicts                31934                       # Number of branch mispredicts detected at execute
system.cpu.iew.branch_mispredict_rate        0.993394                       # Percentage of branch mispredicts
system.cpu.iew.branch_percentage             9.448319                       # Percentage of branches executed
system.cpu.iew.exec_branches                  3214636                       # Number of branches executed
system.cpu.iew.exec_nop                             3                       # number of nop insts executed
system.cpu.iew.exec_rate                     1.987539                       # Inst execution rate
system.cpu.iew.exec_refs                     12345470                       # number of memory reference insts executed
system.cpu.iew.exec_stores                    3870429                       # Number of stores executed
system.cpu.iew.exec_swp                             0                       # number of swp insts executed
system.cpu.iew.iewBlockCycles                   50416                       # Number of cycles IEW is blocking
system.cpu.iew.iewDispLoadInsts               8581962                       # Number of dispatched load instructions
system.cpu.iew.iewDispNonSpecInsts                 67                       # Number of dispatched non-speculative instructions
system.cpu.iew.iewDispSquashedInsts                 0                       # Number of squashed instructions skipped by dispatch
system.cpu.iew.iewDispStoreInsts              3932474                       # Number of dispatched store instructions
system.cpu.iew.iewDispatchedInsts            34243304                       # Number of instructions dispatched to IQ
system.cpu.iew.iewExecLoadInsts               8475041                       # Number of load instructions executed
system.cpu.iew.iewExecSquashedInsts             84250                       # Number of squashed instructions skipped in execute
system.cpu.iew.iewExecutedInsts              34023364                       # Number of executed instructions
system.cpu.iew.iewIQFullEvents                      9                       # Number of times the IQ has become full, causing a stall
system.cpu.iew.iewIdleCycles                        0                       # Number of cycles IEW is idle
system.cpu.iew.iewLSQFullEvents                    97                       # Number of times the LSQ has become full, causing a stall
system.cpu.iew.iewSquashCycles                  31920                       # Number of cycles IEW is squashing
system.cpu.iew.iewUnblockCycles                   110                       # Number of cycles IEW is unblocking
system.cpu.iew.memOrderViolationEvents             67                       # Number of memory order violations
system.cpu.iew.predictedNotTakenIncorrect          979                       # Number of branches that were predicted not taken incorrectly
system.cpu.iew.predictedTakenIncorrect          30955                       # Number of branches that were predicted taken incorrectly
system.cpu.iew.wb_consumers                  26244086                       # num instructions consuming a value
system.cpu.iew.wb_count                      34007705                       # cumulative count of insts written-back
system.cpu.iew.wb_fanout                     0.936987                       # average fanout of values written-back
system.cpu.iew.wb_producers                  24590370                       # num instructions producing a value
system.cpu.iew.wb_rate                       1.986625                       # insts written-back per cycle
system.cpu.iew.wb_sent                       34007908                       # cumulative count of insts sent to commit
system.cpu.int_regfile_reads                 33235512                       # number of integer regfile reads
system.cpu.int_regfile_writes                26918786                       # number of integer regfile writes
system.cpu.ipc                               1.953209                       # IPC: Instructions Per Cycle
system.cpu.ipc_total                         1.953209                       # IPC: Total IPC of All Threads
system.cpu.iq.FU_type_0::No_OpClass                 7      0.00%      0.00% # Type of FU issued
system.cpu.iq.FU_type_0::IntAlu              21711583     63.66%     63.66% # Type of FU issued
system.cpu.iq.FU_type_0::IntMult                  163      0.00%     63.66% # Type of FU issued
system.cpu.iq.FU_type_0::IntDiv                     0      0.00%     63.66% # Type of FU issued
system.cpu.iq.FU_type_0::FloatAdd                   0      0.00%     63.66% # Type of FU issued
system.cpu.iq.FU_type_0::FloatCmp                   0      0.00%     63.66% # Type of FU issued
system.cpu.iq.FU_type_0::FloatCvt                   0      0.00%     63.66% # Type of FU issued
system.cpu.iq.FU_type_0::FloatMult                  0      0.00%     63.66% # Type of FU issued
system.cpu.iq.FU_type_0::FloatMultAcc               0      0.00%     63.66% # Type of FU issued
system.cpu.iq.FU_type_0::FloatDiv                   0      0.00%     63.66% # Type of FU issued
system.cpu.iq.FU_type_0::FloatMisc                  0      0.00%     63.66% # Type of FU issued
system.cpu.iq.FU_type_0::FloatSqrt                  0      0.00%     63.66% # Type of FU issued
system.cpu.iq.FU_type_0::SimdAdd                    0      0.00%     63.66% # Type of FU issued
system.cpu.iq.FU_type_0::SimdAddAcc                 0      0.00%     63.66% # Type of FU issued
system.cpu.iq.FU_type_0::SimdAlu                    0      0.00%     63.66% # Type of FU issued
system.cpu.iq.FU_type_0::SimdCmp                    0      0.00%     63.66% # Type of FU issued
system.cpu.iq.FU_type_0::SimdCvt                    0      0.00%     63.66% # Type of FU issued
system.cpu.iq.FU_type_0::SimdMisc                   0      0.00%     63.66% # Type of FU issued
system.cpu.iq.FU_type_0::SimdMult                   0      0.00%     63.66% # Type of FU issued
system.cpu.iq.FU_type_0::SimdMultAcc                0      0.00%     63.66% # Type of FU issued
system.cpu.iq.FU_type_0::SimdShift                  0      0.00%     63.66% # Type of FU issued
system.cpu.iq.FU_type_0::SimdShiftAcc               0      0.00%     63.66% # Type of FU issued
system.cpu.iq.FU_type_0::SimdDiv                    0      0.00%     63.66% # Type of FU issued
system.cpu.iq.FU_type_0::SimdSqrt                   0      0.00%     63.66% # Type of FU issued
system.cpu.iq.FU_type_0::SimdFloatAdd               0      0.00%     63.66% # Type of FU issued
system.cpu.iq.FU_type_0::SimdFloatAlu               0      0.00%     63.66% # Type of FU issued
system.cpu.iq.FU_type_0::SimdFloatCmp               0      0.00%     63.66% # Type of FU issued
system.cpu.iq.FU_type_0::SimdFloatCvt               0      0.00%     63.66% # Type of FU issued
system.cpu.iq.FU_type_0::SimdFloatDiv               0      0.00%     63.66% # Type of FU issued
system.cpu.iq.FU_type_0::SimdFloatMisc              4      0.00%     63.66% # Type of FU issued
system.cpu.iq.FU_type_0::SimdFloatMult              0      0.00%     63.66% # Type of FU issued
system.cpu.iq.FU_type_0::SimdFloatMultAcc            0      0.00%     63.66% # Type of FU issued
system.cpu.iq.FU_type_0::SimdFloatSqrt              0      0.00%     63.66% # Type of FU issued
system.cpu.iq.FU_type_0::SimdReduceAdd              0      0.00%     63.66% # Type of FU issued
system.cpu.iq.FU_type_0::SimdReduceAlu              0      0.00%     63.66% # Type of FU issued
system.cpu.iq.FU_type_0::SimdReduceCmp              0      0.00%     63.66% # Type of FU issued
system.cpu.iq.FU_type_0::SimdFloatReduceAdd            0      0.00%     63.66% # Type of FU issued
system.cpu.iq.FU_type_0::SimdFloatReduceCmp            0      0.00%     63.66% # Type of FU issued
system.cpu.iq.FU_type_0::SimdAes                    0      0.00%     63.66% # Type of FU issued
system.cpu.iq.FU_type_0::SimdAesMix                 0      0.00%     63.66% # Type of FU issued
system.cpu.iq.FU_type_0::SimdSha1Hash               0      0.00%     63.66% # Type of FU issued
system.cpu.iq.FU_type_0::SimdSha1Hash2              0      0.00%     63.66% # Type of FU issued
system.cpu.iq.FU_type_0::SimdSha256Hash             0      0.00%     63.66% # Type of FU issued
system.cpu.iq.FU_type_0::SimdSha256Hash2            0      0.00%     63.66% # Type of FU issued
system.cpu.iq.FU_type_0::SimdShaSigma2              0      0.00%     63.66% # Type of FU issued
system.cpu.iq.FU_type_0::SimdShaSigma3              0      0.00%     63.66% # Type of FU issued
system.cpu.iq.FU_type_0::SimdPredAlu                0      0.00%     63.66% # Type of FU issued
system.cpu.iq.FU_type_0::MemRead              8521537     24.98%     88.64% # Type of FU issued
system.cpu.iq.FU_type_0::MemWrite             3874320     11.36%    100.00% # Type of FU issued
system.cpu.iq.FU_type_0::FloatMemRead               0      0.00%    100.00% # Type of FU issued
system.cpu.iq.FU_type_0::FloatMemWrite              0      0.00%    100.00% # Type of FU issued
system.cpu.iq.FU_type_0::IprAccess                  0      0.00%    100.00% # Type of FU issued
system.cpu.iq.FU_type_0::InstPrefetch               0      0.00%    100.00% # Type of FU issued
system.cpu.iq.FU_type_0::total               34107614                       # Type of FU issued
system.cpu.iq.fp_alu_accesses                       0                       # Number of floating point alu accesses
system.cpu.iq.fp_inst_queue_reads                   0                       # Number of floating instruction queue reads
system.cpu.iq.fp_inst_queue_wakeup_accesses            0                       # Number of floating instruction queue wakeup accesses
system.cpu.iq.fp_inst_queue_writes                  0                       # Number of floating instruction queue writes
system.cpu.iq.fu_busy_cnt                     2668664                       # FU busy when requested
system.cpu.iq.fu_busy_rate                   0.078242                       # FU busy rate (busy events/executed inst)
system.cpu.iq.fu_full::No_OpClass                   0      0.00%      0.00% # attempts to use FU when none available
system.cpu.iq.fu_full::IntAlu                  610128     22.86%     22.86% # attempts to use FU when none available
system.cpu.iq.fu_full::IntMult                     79      0.00%     22.87% # attempts to use FU when none available
system.cpu.iq.fu_full::IntDiv                       0      0.00%     22.87% # attempts to use FU when none available
system.cpu.iq.fu_full::FloatAdd                     0      0.00%     22.87% # attempts to use FU when none available
system.cpu.iq.fu_full::FloatCmp                     0      0.00%     22.87% # attempts to use FU when none available
system.cpu.iq.fu_full::FloatCvt                     0      0.00%     22.87% # attempts to use FU when none available
system.cpu.iq.fu_full::FloatMult                    0      0.00%     22.87% # attempts to use FU when none available
system.cpu.iq.fu_full::FloatMultAcc                 0      0.00%     22.87% # attempts to use FU when none available
system.cpu.iq.fu_full::FloatDiv                     0      0.00%     22.87% # attempts to use FU when none available
system.cpu.iq.fu_full::FloatMisc                    0      0.00%     22.87% # attempts to use FU when none available
system.cpu.iq.fu_full::FloatSqrt                    0      0.00%     22.87% # attempts to use FU when none available
system.cpu.iq.fu_full::SimdAdd                      0      0.00%     22.87% # attempts to use FU when none available
system.cpu.iq.fu_full::SimdAddAcc                   0      0.00%     22.87% # attempts to use FU when none available
system.cpu.iq.fu_full::SimdAlu                      0      0.00%     22.87% # attempts to use FU when none available
system.cpu.iq.fu_full::SimdCmp                      0      0.00%     22.87% # attempts to use FU when none available
system.cpu.iq.fu_full::SimdCvt                      0      0.00%     22.87% # attempts to use FU when none available
system.cpu.iq.fu_full::SimdMisc                     0      0.00%     22.87% # attempts to use FU when none available
system.cpu.iq.fu_full::SimdMult                     0      0.00%     22.87% # attempts to use FU when none available
system.cpu.iq.fu_full::SimdMultAcc                  0      0.00%     22.87% # attempts to use FU when none available
system.cpu.iq.fu_full::SimdShift                    0      0.00%     22.87% # attempts to use FU when none available
system.cpu.iq.fu_full::SimdShiftAcc                 0      0.00%     22.87% # attempts to use FU when none available
system.cpu.iq.fu_full::SimdDiv                      0      0.00%     22.87% # attempts to use FU when none available
system.cpu.iq.fu_full::SimdSqrt                     0      0.00%     22.87% # attempts to use FU when none available
system.cpu.iq.fu_full::SimdFloatAdd                 0      0.00%     22.87% # attempts to use FU when none available
system.cpu.iq.fu_full::SimdFloatAlu                 0      0.00%     22.87% # attempts to use FU when none available
system.cpu.iq.fu_full::SimdFloatCmp                 0      0.00%     22.87% # attempts to use FU when none available
system.cpu.iq.fu_full::SimdFloatCvt                 0      0.00%     22.87% # attempts to use FU when none available
system.cpu.iq.fu_full::SimdFloatDiv                 0      0.00%     22.87% # attempts to use FU when none available
system.cpu.iq.fu_full::SimdFloatMisc                0      0.00%     22.87% # attempts to use FU when none available
system.cpu.iq.fu_full::SimdFloatMult                0      0.00%     22.87% # attempts to use FU when none available
system.cpu.iq.fu_full::SimdFloatMultAcc             0      0.00%     22.87% # attempts to use FU when none available
system.cpu.iq.fu_full::SimdFloatSqrt                0      0.00%     22.87% # attempts to use FU when none available
system.cpu.iq.fu_full::SimdReduceAdd                0      0.00%     22.87% # attempts to use FU when none available
system.cpu.iq.fu_full::SimdReduceAlu                0      0.00%     22.87% # attempts to use FU when none available
system.cpu.iq.fu_full::SimdReduceCmp                0      0.00%     22.87% # attempts to use FU when none available
system.cpu.iq.fu_full::SimdFloatReduceAdd            0      0.00%     22.87% # attempts to use FU when none available
system.cpu.iq.fu_full::SimdFloatReduceCmp            0      0.00%     22.87% # attempts to use FU when none available
system.cpu.iq.fu_full::SimdAes                      0      0.00%     22.87% # attempts to use FU when none available
system.cpu.iq.fu_full::SimdAesMix                   0      0.00%     22.87% # attempts to use FU when none available
system.cpu.iq.fu_full::SimdSha1Hash                 0      0.00%     22.87% # attempts to use FU when none available
system.cpu.iq.fu_full::SimdSha1Hash2                0      0.00%     22.87% # attempts to use FU when none available
system.cpu.iq.fu_full::SimdSha256Hash               0      0.00%     22.87% # attempts to use FU when none available
system.cpu.iq.fu_full::SimdSha256Hash2              0      0.00%     22.87% # attempts to use FU when none available
system.cpu.iq.fu_full::SimdShaSigma2                0      0.00%     22.87% # attempts to use FU when none available
system.cpu.iq.fu_full::SimdShaSigma3                0      0.00%     22.87% # attempts to use FU when none available
system.cpu.iq.fu_full::SimdPredAlu                  0      0.00%     22.87% # attempts to use FU when none available
system.cpu.iq.fu_full::MemRead                1730509     64.85%     87.71% # attempts to use FU when none available
system.cpu.iq.fu_full::MemWrite                327948     12.29%    100.00% # attempts to use FU when none available
system.cpu.iq.fu_full::FloatMemRead                 0      0.00%    100.00% # attempts to use FU when none available
system.cpu.iq.fu_full::FloatMemWrite                0      0.00%    100.00% # attempts to use FU when none available
system.cpu.iq.fu_full::IprAccess                    0      0.00%    100.00% # attempts to use FU when none available
system.cpu.iq.fu_full::InstPrefetch                 0      0.00%    100.00% # attempts to use FU when none available
system.cpu.iq.int_alu_accesses               36776271                       # Number of integer alu accesses
system.cpu.iq.int_inst_queue_reads           87961957                       # Number of integer instruction queue reads
system.cpu.iq.int_inst_queue_wakeup_accesses     34007705                       # Number of integer instruction queue wakeup accesses
system.cpu.iq.int_inst_queue_writes          34827855                       # Number of integer instruction queue writes
system.cpu.iq.iqInstsAdded                   34243182                       # Number of instructions added to the IQ (excludes non-spec)
system.cpu.iq.iqInstsIssued                  34107614                       # Number of instructions issued
system.cpu.iq.iqNonSpecInstsAdded                 119                       # Number of non-speculative instructions added to the IQ
system.cpu.iq.iqSquashedInstsExamined          584488                       # Number of squashed instructions iterated over during squash; mainly for profiling
system.cpu.iq.iqSquashedInstsIssued               541                       # Number of squashed instructions issued
system.cpu.iq.iqSquashedNonSpecRemoved              2                       # Number of squashed non-spec instructions that were removed
system.cpu.iq.iqSquashedOperandsExamined      1121169                       # Number of squashed operands that are examined and possibly removed from graph
system.cpu.iq.issued_per_cycle::samples      17077524                       # Number of insts issued each cycle
system.cpu.iq.issued_per_cycle::mean         1.997222                       # Number of insts issued each cycle
system.cpu.iq.issued_per_cycle::stdev        0.789120                       # Number of insts issued each cycle
system.cpu.iq.issued_per_cycle::underflows            0      0.00%      0.00% # Number of insts issued each cycle
system.cpu.iq.issued_per_cycle::0              470184      2.75%      2.75% # Number of insts issued each cycle
system.cpu.iq.issued_per_cycle::1             3894608     22.81%     25.56% # Number of insts issued each cycle
system.cpu.iq.issued_per_cycle::2             7960990     46.62%     72.18% # Number of insts issued each cycle
system.cpu.iq.issued_per_cycle::3             4715942     27.61%     99.79% # Number of insts issued each cycle
system.cpu.iq.issued_per_cycle::4               35800      0.21%    100.00% # Number of insts issued each cycle
system.cpu.iq.issued_per_cycle::5                   0      0.00%    100.00% # Number of insts issued each cycle
system.cpu.iq.issued_per_cycle::6                   0      0.00%    100.00% # Number of insts issued each cycle
system.cpu.iq.issued_per_cycle::7                   0      0.00%    100.00% # Number of insts issued each cycle
system.cpu.iq.issued_per_cycle::8                   0      0.00%    100.00% # Number of insts issued each cycle
system.cpu.iq.issued_per_cycle::overflows            0      0.00%    100.00% # Number of insts issued each cycle
system.cpu.iq.issued_per_cycle::min_value            0                       # Number of insts issued each cycle
system.cpu.iq.issued_per_cycle::max_value            4                       # Number of insts issued each cycle
system.cpu.iq.issued_per_cycle::total        17077524                       # Number of insts issued each cycle
system.cpu.iq.rate                           1.992461                       # Inst issue rate
system.cpu.iq.vec_alu_accesses                      0                       # Number of vector alu accesses
system.cpu.iq.vec_inst_queue_reads                  0                       # Number of vector instruction queue reads
system.cpu.iq.vec_inst_queue_wakeup_accesses            0                       # Number of vector instruction queue wakeup accesses
system.cpu.iq.vec_inst_queue_writes                 0                       # Number of vector instruction queue writes
system.cpu.memDep0.conflictingLoads            300942                       # Number of conflicting loads.
system.cpu.memDep0.conflictingStores              210                       # Number of conflicting stores.
system.cpu.memDep0.insertedLoads              8581962                       # Number of loads inserted to the mem dependence unit.
system.cpu.memDep0.insertedStores             3932474                       # Number of stores inserted to the mem dependence unit.
system.cpu.misc_regfile_reads               105183853                       # number of misc regfile reads
system.cpu.misc_regfile_writes                    206                       # number of misc regfile writes
system.cpu.numCycles                         17118334                       # number of cpu cycles simulated
system.cpu.numWorkItemsCompleted                    0                       # number of work items this cpu completed
system.cpu.numWorkItemsStarted                      0                       # number of work items this cpu started
system.cpu.timesIdled                             608                       # Number of times that the entire CPU went into an idle state and unscheduled itself
system.cpu.vec_regfile_reads                       32                       # number of vector regfile reads
system.cpu.workload.numSyscalls                    13                       # Number of system calls
system.membus.snoop_filter.hit_multi_requests           36                       # Number of requests hitting in the snoop filter with multiple (>1) holders of the requested data.
system.membus.snoop_filter.hit_multi_snoops            0                       # Number of snoops hitting in the snoop filter with multiple (>1) holders of the requested data.
system.membus.snoop_filter.hit_single_requests         1194                       # Number of requests hitting in the snoop filter with a single holder of the requested data.
system.membus.snoop_filter.hit_single_snoops            0                       # Number of snoops hitting in the snoop filter with a single holder of the requested data.
system.membus.snoop_filter.tot_requests          3360                       # Total number of requests made to the snoop filter.
system.membus.snoop_filter.tot_snoops               0                       # Total number of snoops made to the snoop filter.
system.clk_domain.clock                          1000                       # Clock period in ticks
system.cpu.branchPred.lookups                 3224630                       # Number of BP lookups
system.cpu.branchPred.condPredicted           1013191                       # Number of conditional branches predicted
system.cpu.branchPred.condIncorrect             32273                       # Number of conditional branches incorrect
system.cpu.branchPred.BTBLookups              2014930                       # Number of BTB lookups
system.cpu.branchPred.BTBHits                 2013700                       # Number of BTB hits
system.cpu.branchPred.BTBHitPct             99.938956                       # BTB Hit Percentage
system.cpu.branchPred.RASUsed                 1104860                       # Number of times the RAS was used to get a target.
system.cpu.branchPred.RASIncorrect                166                       # Number of incorrect RAS predictions.
system.cpu.branchPred.indirectLookups          100634                       # Number of indirect predictor lookups.
system.cpu.branchPred.indirectHits             100120                       # Number of indirect target hits.
system.cpu.branchPred.indirectMisses              514                       # Number of indirect misses.
system.cpu.branchPred.indirectMispredicted        27175                       # Number of mispredicted indirect branches.
system.cpu.commit.commitSquashedInsts          513418                       # The number of squashed insts skipped by commit
system.cpu.commit.commitNonSpecStalls             117                       # The number of times commit has been forced to stall to communicate backwards
system.cpu.commit.branchMispredicts             31826                       # The number of times a branch was mispredicted
system.cpu.commit.numCommittedDist::samples     16996207                       # Number of insts commited each cycle
system.cpu.commit.numCommittedDist::mean     1.980372                       # Number of insts commited each cycle
system.cpu.commit.numCommittedDist::stdev     2.392916                       # Number of insts commited each cycle
system.cpu.commit.numCommittedDist::underflows            0      0.00%      0.00% # Number of insts commited each cycle
system.cpu.commit.numCommittedDist::0         6169648     36.30%     36.30% # Number of insts commited each cycle
system.cpu.commit.numCommittedDist::1         4285931     25.22%     61.52% # Number of insts commited each cycle
system.cpu.commit.numCommittedDist::2         1257501      7.40%     68.92% # Number of insts commited each cycle
system.cpu.commit.numCommittedDist::3         1325157      7.80%     76.71% # Number of insts commited each cycle
system.cpu.commit.numCommittedDist::4         1154727      6.79%     83.51% # Number of insts commited each cycle
system.cpu.commit.numCommittedDist::5         1080236      6.36%     89.86% # Number of insts commited each cycle
system.cpu.commit.numCommittedDist::6          403896      2.38%     92.24% # Number of insts commited each cycle
system.cpu.commit.numCommittedDist::7          113944      0.67%     92.91% # Number of insts commited each cycle
system.cpu.commit.numCommittedDist::8         1205167      7.09%    100.00% # Number of insts commited each cycle
system.cpu.commit.numCommittedDist::overflows            0      0.00%    100.00% # Number of insts commited each cycle
system.cpu.commit.numCommittedDist::min_value            0                       # Number of insts commited each cycle
system.cpu.commit.numCommittedDist::max_value            8                       # Number of insts commited each cycle
system.cpu.commit.numCommittedDist::total     16996207                       # Number of insts commited each cycle
system.cpu.commit.instsCommitted             33435691                       # Number of instructions committed
system.cpu.commit.opsCommitted               33658812                       # Number of ops (including micro ops) committed
system.cpu.commit.memRefs                    12269756                       # Number of memory references committed
system.cpu.commit.loads                       8426843                       # Number of loads committed
system.cpu.commit.amos                              0                       # Number of atomic instructions committed
system.cpu.commit.membars                          52                       # Number of memory barriers committed
system.cpu.commit.branches                    3208608                       # Number of branches committed
system.cpu.commit.vector                            0                       # Number of committed Vector instructions.
system.cpu.commit.floating                          0                       # Number of committed floating point instructions.
system.cpu.commit.integer                    32651800                       # Number of committed integer instructions.
system.cpu.commit.functionCalls               1100703                       # Number of function calls committed.
system.cpu.commit.committedInstType_0::No_OpClass            0      0.00%      0.00% # Class of committed instruction
system.cpu.commit.committedInstType_0::IntAlu     21388897     63.55%     63.55% # Class of committed instruction
system.cpu.commit.committedInstType_0::IntMult          155      0.00%     63.55% # Class of committed instruction
system.cpu.commit.committedInstType_0::IntDiv            0      0.00%     63.55% # Class of committed instruction
system.cpu.commit.committedInstType_0::FloatAdd            0      0.00%     63.55% # Class of committed instruction
system.cpu.commit.committedInstType_0::FloatCmp            0      0.00%     63.55% # Class of committed instruction
system.cpu.commit.committedInstType_0::FloatCvt            0      0.00%     63.55% # Class of committed instruction
system.cpu.commit.committedInstType_0::FloatMult            0      0.00%     63.55% # Class of committed instruction
system.cpu.commit.committedInstType_0::FloatMultAcc            0      0.00%     63.55% # Class of committed instruction
system.cpu.commit.committedInstType_0::FloatDiv            0      0.00%     63.55% # Class of committed instruction
system.cpu.commit.committedInstType_0::FloatMisc            0      0.00%     63.55% # Class of committed instruction
system.cpu.commit.committedInstType_0::FloatSqrt            0      0.00%     63.55% # Class of committed instruction
system.cpu.commit.committedInstType_0::SimdAdd            0      0.00%     63.55% # Class of committed instruction
system.cpu.commit.committedInstType_0::SimdAddAcc            0      0.00%     63.55% # Class of committed instruction
system.cpu.commit.committedInstType_0::SimdAlu            0      0.00%     63.55% # Class of committed instruction
system.cpu.commit.committedInstType_0::SimdCmp            0      0.00%     63.55% # Class of committed instruction
system.cpu.commit.committedInstType_0::SimdCvt            0      0.00%     63.55% # Class of committed instruction
system.cpu.commit.committedInstType_0::SimdMisc            0      0.00%     63.55% # Class of committed instruction
system.cpu.commit.committedInstType_0::SimdMult            0      0.00%     63.55% # Class of committed instruction
system.cpu.commit.committedInstType_0::SimdMultAcc            0      0.00%     63.55% # Class of committed instruction
system.cpu.commit.committedInstType_0::SimdShift            0      0.00%     63.55% # Class of committed instruction
system.cpu.commit.committedInstType_0::SimdShiftAcc            0      0.00%     63.55% # Class of committed instruction
system.cpu.commit.committedInstType_0::SimdDiv            0      0.00%     63.55% # Class of committed instruction
system.cpu.commit.committedInstType_0::SimdSqrt            0      0.00%     63.55% # Class of committed instruction
system.cpu.commit.committedInstType_0::SimdFloatAdd            0      0.00%     63.55% # Class of committed instruction
system.cpu.commit.committedInstType_0::SimdFloatAlu            0      0.00%     63.55% # Class of committed instruction
system.cpu.commit.committedInstType_0::SimdFloatCmp            0      0.00%     63.55% # Class of committed instruction
system.cpu.commit.committedInstType_0::SimdFloatCvt            0      0.00%     63.55% # Class of committed instruction
system.cpu.commit.committedInstType_0::SimdFloatDiv            0      0.00%     63.55% # Class of committed instruction
system.cpu.commit.committedInstType_0::SimdFloatMisc            4      0.00%     63.55% # Class of committed instruction
system.cpu.commit.committedInstType_0::SimdFloatMult            0      0.00%     63.55% # Class of committed instruction
system.cpu.commit.committedInstType_0::SimdFloatMultAcc            0      0.00%     63.55% # Class of committed instruction
system.cpu.commit.committedInstType_0::SimdFloatSqrt            0      0.00%     63.55% # Class of committed instruction
system.cpu.commit.committedInstType_0::SimdReduceAdd            0      0.00%     63.55% # Class of committed instruction
system.cpu.commit.committedInstType_0::SimdReduceAlu            0      0.00%     63.55% # Class of committed instruction
system.cpu.commit.committedInstType_0::SimdReduceCmp            0      0.00%     63.55% # Class of committed instruction
system.cpu.commit.committedInstType_0::SimdFloatReduceAdd            0      0.00%     63.55% # Class of committed instruction
system.cpu.commit.committedInstType_0::SimdFloatReduceCmp            0      0.00%     63.55% # Class of committed instruction
system.cpu.commit.committedInstType_0::SimdAes            0      0.00%     63.55% # Class of committed instruction
system.cpu.commit.committedInstType_0::SimdAesMix            0      0.00%     63.55% # Class of committed instruction
system.cpu.commit.committedInstType_0::SimdSha1Hash            0      0.00%     63.55% # Class of committed instruction
system.cpu.commit.committedInstType_0::SimdSha1Hash2            0      0.00%     63.55% # Class of committed instruction
system.cpu.commit.committedInstType_0::SimdSha256Hash            0      0.00%     63.55% # Class of committed instruction
system.cpu.commit.committedInstType_0::SimdSha256Hash2            0      0.00%     63.55% # Class of committed instruction
system.cpu.commit.committedInstType_0::SimdShaSigma2            0      0.00%     63.55% # Class of committed instruction
system.cpu.commit.committedInstType_0::SimdShaSigma3            0      0.00%     63.55% # Class of committed instruction
system.cpu.commit.committedInstType_0::SimdPredAlu            0      0.00%     63.55% # Class of committed instruction
system.cpu.commit.committedInstType_0::MemRead      8426843     25.04%     88.58% # Class of committed instruction
system.cpu.commit.committedInstType_0::MemWrite      3842913     11.42%    100.00% # Class of committed instruction
system.cpu.commit.committedInstType_0::FloatMemRead            0      0.00%    100.00% # Class of committed instruction
system.cpu.commit.committedInstType_0::FloatMemWrite            0      0.00%    100.00% # Class of committed instruction
system.cpu.commit.committedInstType_0::IprAccess            0      0.00%    100.00% # Class of committed instruction
system.cpu.commit.committedInstType_0::InstPrefetch            0      0.00%    100.00% # Class of committed instruction
system.cpu.commit.committedInstType_0::total     33658812                       # Class of committed instruction
system.cpu.commit.commitEligibleSamples       1205167                       # number cycles where commit BW limit reached
system.cpu.dcache.demand_hits::.cpu.data     11412000                       # number of demand (read+write) hits
system.cpu.dcache.demand_hits::total         11412000                       # number of demand (read+write) hits
system.cpu.dcache.overall_hits::.cpu.data     11412000                       # number of overall hits
system.cpu.dcache.overall_hits::total        11412000                       # number of overall hits
system.cpu.dcache.demand_misses::.cpu.data         2556                       # number of demand (read+write) misses
system.cpu.dcache.demand_misses::total           2556                       # number of demand (read+write) misses
system.cpu.dcache.overall_misses::.cpu.data         2556                       # number of overall misses
system.cpu.dcache.overall_misses::total          2556                       # number of overall misses
system.cpu.dcache.demand_miss_latency::.cpu.data    151900625                       # number of demand (read+write) miss cycles
system.cpu.dcache.demand_miss_latency::total    151900625                       # number of demand (read+write) miss cycles
system.cpu.dcache.overall_miss_latency::.cpu.data    151900625                       # number of overall miss cycles
system.cpu.dcache.overall_miss_latency::total    151900625                       # number of overall miss cycles
system.cpu.dcache.demand_accesses::.cpu.data     11414556                       # number of demand (read+write) accesses
system.cpu.dcache.demand_accesses::total     11414556                       # number of demand (read+write) accesses
system.cpu.dcache.overall_accesses::.cpu.data     11414556                       # number of overall (read+write) accesses
system.cpu.dcache.overall_accesses::total     11414556                       # number of overall (read+write) accesses
system.cpu.dcache.demand_miss_rate::.cpu.data     0.000224                       # miss rate for demand accesses
system.cpu.dcache.demand_miss_rate::total     0.000224                       # miss rate for demand accesses
system.cpu.dcache.overall_miss_rate::.cpu.data     0.000224                       # miss rate for overall accesses
system.cpu.dcache.overall_miss_rate::total     0.000224                       # miss rate for overall accesses
system.cpu.dcache.demand_avg_miss_latency::.cpu.data 59429.039515                       # average overall miss latency
system.cpu.dcache.demand_avg_miss_latency::total 59429.039515                       # average overall miss latency
system.cpu.dcache.overall_avg_miss_latency::.cpu.data 59429.039515                       # average overall miss latency
system.cpu.dcache.overall_avg_miss_latency::total 59429.039515                       # average overall miss latency
system.cpu.dcache.blocked_cycles::no_mshrs            0                       # number of cycles access was blocked
system.cpu.dcache.blocked_cycles::no_targets         2346                       # number of cycles access was blocked
system.cpu.dcache.blocked::no_mshrs                 0                       # number of cycles access was blocked
system.cpu.dcache.blocked::no_targets              32                       # number of cycles access was blocked
system.cpu.dcache.avg_blocked_cycles::no_mshrs          nan                       # average number of cycles each access was blocked
system.cpu.dcache.avg_blocked_cycles::no_targets    73.312500                       # average number of cycles each access was blocked
system.cpu.dcache.writebacks::.writebacks          873                       # number of writebacks
system.cpu.dcache.writebacks::total               873                       # number of writebacks
system.cpu.dcache.demand_mshr_hits::.cpu.data         1171                       # number of demand (read+write) MSHR hits
system.cpu.dcache.demand_mshr_hits::total         1171                       # number of demand (read+write) MSHR hits
system.cpu.dcache.overall_mshr_hits::.cpu.data         1171                       # number of overall MSHR hits
system.cpu.dcache.overall_mshr_hits::total         1171                       # number of overall MSHR hits
system.cpu.dcache.demand_mshr_misses::.cpu.data         1385                       # number of demand (read+write) MSHR misses
system.cpu.dcache.demand_mshr_misses::total         1385                       # number of demand (read+write) MSHR misses
system.cpu.dcache.overall_mshr_misses::.cpu.data         1385                       # number of overall MSHR misses
system.cpu.dcache.overall_mshr_misses::total         1385                       # number of overall MSHR misses
system.cpu.dcache.demand_mshr_miss_latency::.cpu.data     84995000                       # number of demand (read+write) MSHR miss cycles
system.cpu.dcache.demand_mshr_miss_latency::total     84995000                       # number of demand (read+write) MSHR miss cycles
system.cpu.dcache.overall_mshr_miss_latency::.cpu.data     84995000                       # number of overall MSHR miss cycles
system.cpu.dcache.overall_mshr_miss_latency::total     84995000                       # number of overall MSHR miss cycles
system.cpu.dcache.demand_mshr_miss_rate::.cpu.data     0.000121                       # mshr miss rate for demand accesses
system.cpu.dcache.demand_mshr_miss_rate::total     0.000121                       # mshr miss rate for demand accesses
system.cpu.dcache.overall_mshr_miss_rate::.cpu.data     0.000121                       # mshr miss rate for overall accesses
system.cpu.dcache.overall_mshr_miss_rate::total     0.000121                       # mshr miss rate for overall accesses
system.cpu.dcache.demand_avg_mshr_miss_latency::.cpu.data 61368.231047                       # average overall mshr miss latency
system.cpu.dcache.demand_avg_mshr_miss_latency::total 61368.231047                       # average overall mshr miss latency
system.cpu.dcache.overall_avg_mshr_miss_latency::.cpu.data 61368.231047                       # average overall mshr miss latency
system.cpu.dcache.overall_avg_mshr_miss_latency::total 61368.231047                       # average overall mshr miss latency
system.cpu.dcache.replacements                    873                       # number of replacements
system.cpu.dcache.ReadReq_hits::.cpu.data      7667034                       # number of ReadReq hits
system.cpu.dcache.ReadReq_hits::total         7667034                       # number of ReadReq hits
system.cpu.dcache.ReadReq_misses::.cpu.data          424                       # number of ReadReq misses
system.cpu.dcache.ReadReq_misses::total           424                       # number of ReadReq misses
system.cpu.dcache.ReadReq_miss_latency::.cpu.data     26756375                       # number of ReadReq miss cycles
system.cpu.dcache.ReadReq_miss_latency::total     26756375                       # number of ReadReq miss cycles
system.cpu.dcache.ReadReq_accesses::.cpu.data      7667458                       # number of ReadReq accesses(hits+misses)
system.cpu.dcache.ReadReq_accesses::total      7667458                       # number of ReadReq accesses(hits+misses)
system.cpu.dcache.ReadReq_miss_rate::.cpu.data     0.000055                       # miss rate for ReadReq accesses
system.cpu.dcache.ReadReq_miss_rate::total     0.000055                       # miss rate for ReadReq accesses
system.cpu.dcache.ReadReq_avg_miss_latency::.cpu.data 63104.658019                       # average ReadReq miss latency
system.cpu.dcache.ReadReq_avg_miss_latency::total 63104.658019                       # average ReadReq miss latency
system.cpu.dcache.ReadReq_mshr_hits::.cpu.data          197                       # number of ReadReq MSHR hits
system.cpu.dcache.ReadReq_mshr_hits::total          197                       # number of ReadReq MSHR hits
system.cpu.dcache.ReadReq_mshr_misses::.cpu.data          227                       # number of ReadReq MSHR misses
system.cpu.dcache.ReadReq_mshr_misses::total          227                       # number of ReadReq MSHR misses
system.cpu.dcache.ReadReq_mshr_miss_latency::.cpu.data     14661250                       # number of ReadReq MSHR miss cycles
system.cpu.dcache.ReadReq_mshr_miss_latency::total     14661250                       # number of ReadReq MSHR miss cycles
system.cpu.dcache.ReadReq_mshr_miss_rate::.cpu.data     0.000030                       # mshr miss rate for ReadReq accesses
system.cpu.dcache.ReadReq_mshr_miss_rate::total     0.000030                       # mshr miss rate for ReadReq accesses
system.cpu.dcache.ReadReq_avg_mshr_miss_latency::.cpu.data 64587.004405                       # average ReadReq mshr miss latency
system.cpu.dcache.ReadReq_avg_mshr_miss_latency::total 64587.004405                       # average ReadReq mshr miss latency
system.cpu.dcache.WriteReq_hits::.cpu.data      3744966                       # number of WriteReq hits
system.cpu.dcache.WriteReq_hits::total        3744966                       # number of WriteReq hits
system.cpu.dcache.WriteReq_misses::.cpu.data         2132                       # number of WriteReq misses
system.cpu.dcache.WriteReq_misses::total         2132                       # number of WriteReq misses
system.cpu.dcache.WriteReq_miss_latency::.cpu.data    125144250                       # number of WriteReq miss cycles
system.cpu.dcache.WriteReq_miss_latency::total    125144250                       # number of WriteReq miss cycles
system.cpu.dcache.WriteReq_accesses::.cpu.data      3747098                       # number of WriteReq accesses(hits+misses)
system.cpu.dcache.WriteReq_accesses::total      3747098                       # number of WriteReq accesses(hits+misses)
system.cpu.dcache.WriteReq_miss_rate::.cpu.data     0.000569                       # miss rate for WriteReq accesses
system.cpu.dcache.WriteReq_miss_rate::total     0.000569                       # miss rate for WriteReq accesses
system.cpu.dcache.WriteReq_avg_miss_latency::.cpu.data 58698.053471                       # average WriteReq miss latency
system.cpu.dcache.WriteReq_avg_miss_latency::total 58698.053471                       # average WriteReq miss latency
system.cpu.dcache.WriteReq_mshr_hits::.cpu.data          974                       # number of WriteReq MSHR hits
system.cpu.dcache.WriteReq_mshr_hits::total          974                       # number of WriteReq MSHR hits
system.cpu.dcache.WriteReq_mshr_misses::.cpu.data         1158                       # number of WriteReq MSHR misses
system.cpu.dcache.WriteReq_mshr_misses::total         1158                       # number of WriteReq MSHR misses
system.cpu.dcache.WriteReq_mshr_miss_latency::.cpu.data     70333750                       # number of WriteReq MSHR miss cycles
system.cpu.dcache.WriteReq_mshr_miss_latency::total     70333750                       # number of WriteReq MSHR miss cycles
system.cpu.dcache.WriteReq_mshr_miss_rate::.cpu.data     0.000309                       # mshr miss rate for WriteReq accesses
system.cpu.dcache.WriteReq_mshr_miss_rate::total     0.000309                       # mshr miss rate for WriteReq accesses
system.cpu.dcache.WriteReq_avg_mshr_miss_latency::.cpu.data 60737.262522                       # average WriteReq mshr miss latency
system.cpu.dcache.WriteReq_avg_mshr_miss_latency::total 60737.262522                       # average WriteReq mshr miss latency
system.cpu.dcache.LoadLockedReq_hits::.cpu.data           49                       # number of LoadLockedReq hits
system.cpu.dcache.LoadLockedReq_hits::total           49                       # number of LoadLockedReq hits
system.cpu.dcache.LoadLockedReq_misses::.cpu.data            2                       # number of LoadLockedReq misses
system.cpu.dcache.LoadLockedReq_misses::total            2                       # number of LoadLockedReq misses
system.cpu.dcache.LoadLockedReq_miss_latency::.cpu.data        98750                       # number of LoadLockedReq miss cycles
system.cpu.dcache.LoadLockedReq_miss_latency::total        98750                       # number of LoadLockedReq miss cycles
system.cpu.dcache.LoadLockedReq_accesses::.cpu.data           51                       # number of LoadLockedReq accesses(hits+misses)
system.cpu.dcache.LoadLockedReq_accesses::total           51                       # number of LoadLockedReq accesses(hits+misses)
system.cpu.dcache.LoadLockedReq_miss_rate::.cpu.data     0.039216                       # miss rate for LoadLockedReq accesses
system.cpu.dcache.LoadLockedReq_miss_rate::total     0.039216                       # miss rate for LoadLockedReq accesses
system.cpu.dcache.LoadLockedReq_avg_miss_latency::.cpu.data        49375                       # average LoadLockedReq miss latency
system.cpu.dcache.LoadLockedReq_avg_miss_latency::total        49375                       # average LoadLockedReq miss latency
system.cpu.dcache.LoadLockedReq_mshr_hits::.cpu.data            2                       # number of LoadLockedReq MSHR hits
system.cpu.dcache.LoadLockedReq_mshr_hits::total            2                       # number of LoadLockedReq MSHR hits
system.cpu.dcache.StoreCondReq_hits::.cpu.data           51                       # number of StoreCondReq hits
system.cpu.dcache.StoreCondReq_hits::total           51                       # number of StoreCondReq hits
system.cpu.dcache.StoreCondReq_accesses::.cpu.data           51                       # number of StoreCondReq accesses(hits+misses)
system.cpu.dcache.StoreCondReq_accesses::total           51                       # number of StoreCondReq accesses(hits+misses)
system.cpu.dcache.power_state.pwrStateResidencyTicks::UNDEFINED  10698958125                       # Cumulative time (in ticks) in various power states
system.cpu.dcache.tags.tagsinuse           510.532311                       # Cycle average of tags in use
system.cpu.dcache.tags.total_refs            11413485                       # Total number of references to valid blocks.
system.cpu.dcache.tags.sampled_refs              1385                       # Sample count of references to valid blocks.
system.cpu.dcache.tags.avg_refs           8240.783394                       # Average number of references to valid blocks.
system.cpu.dcache.tags.warmup_cycle            149000                       # Cycle when the warmup percentage was hit.
system.cpu.dcache.tags.occ_blocks::.cpu.data   510.532311                       # Average occupied blocks per requestor
system.cpu.dcache.tags.occ_percent::.cpu.data     0.997133                       # Average percentage of cache occupancy
system.cpu.dcache.tags.occ_percent::total     0.997133                       # Average percentage of cache occupancy
system.cpu.dcache.tags.occ_task_id_blocks::1024          512                       # Occupied blocks per task id
system.cpu.dcache.tags.age_task_id_blocks_1024::0           43                       # Occupied blocks per task id
system.cpu.dcache.tags.age_task_id_blocks_1024::1           49                       # Occupied blocks per task id
system.cpu.dcache.tags.age_task_id_blocks_1024::4          420                       # Occupied blocks per task id
system.cpu.dcache.tags.occ_task_id_percent::1024            1                       # Percentage of cache occupancy per task id
system.cpu.dcache.tags.tag_accesses          45660017                       # Number of tag accesses
system.cpu.dcache.tags.data_accesses         45660017                       # Number of data accesses
system.cpu.dcache.tags.power_state.pwrStateResidencyTicks::UNDEFINED  10698958125                       # Cumulative time (in ticks) in various power states
system.cpu.decode.idleCycles                    82787                       # Number of cycles decode is idle
system.cpu.decode.blockedCycles                111294                       # Number of cycles decode is blocked
system.cpu.decode.runCycles                  16847745                       # Number of cycles decode is running
system.cpu.decode.unblockCycles                  3778                       # Number of cycles decode is unblocking
system.cpu.decode.squashCycles                  31920                       # Number of cycles decode is squashing
system.cpu.decode.branchResolved              2010368                       # Number of times decode resolved a  branch
system.cpu.decode.branchMispred                   465                       # Number of times decode detected a branch misprediction
system.cpu.decode.decodedInsts               34423200                       # Number of instructions handled by decode
system.cpu.decode.squashedInsts                131161                       # Number of squashed instructions handled by decode
system.cpu.dtb.instHits                             0                       # ITB inst hits
system.cpu.dtb.instMisses                           0                       # ITB inst misses
system.cpu.dtb.readHits                             0                       # DTB read hits
system.cpu.dtb.readMisses                           0                       # DTB read misses
system.cpu.dtb.writeHits                            0                       # DTB write hits
system.cpu.dtb.writeMisses                          0                       # DTB write misses
system.cpu.dtb.inserts                              0                       # Number of times an entry is inserted into the TLB
system.cpu.dtb.flushTlb                             0                       # Number of times complete TLB was flushed
system.cpu.dtb.flushTlbMva                          0                       # Number of times TLB was flushed by MVA
system.cpu.dtb.flushTlbMvaAsid                      0                       # Number of times TLB was flushed by MVA & ASID
system.cpu.dtb.flushTlbAsid                         0                       # Number of times TLB was flushed by ASID
system.cpu.dtb.flushedEntries                       0                       # Number of entries that have been flushed from TLB
system.cpu.dtb.alignFaults                          0                       # Number of TLB faults due to alignment restrictions
system.cpu.dtb.prefetchFaults                       0                       # Number of TLB faults due to prefetch
system.cpu.dtb.domainFaults                         0                       # Number of TLB faults due to domain restrictions
system.cpu.dtb.permsFaults                          0                       # Number of TLB faults due to permissions restrictions
system.cpu.dtb.readAccesses                         0                       # DTB read accesses
system.cpu.dtb.writeAccesses                        0                       # DTB write accesses
system.cpu.dtb.instAccesses                         0                       # ITB inst accesses
system.cpu.dtb.hits                                 0                       # Total TLB (inst and data) hits
system.cpu.dtb.misses                               0                       # Total TLB (inst and data) misses
system.cpu.dtb.accesses                             0                       # Total TLB (inst and data) accesses
system.cpu.dtb.stage2_mmu.stage2_tlb.instHits            0                       # ITB inst hits
system.cpu.dtb.stage2_mmu.stage2_tlb.instMisses            0                       # ITB inst misses
system.cpu.dtb.stage2_mmu.stage2_tlb.readHits            0                       # DTB read hits
system.cpu.dtb.stage2_mmu.stage2_tlb.readMisses            0                       # DTB read misses
system.cpu.dtb.stage2_mmu.stage2_tlb.writeHits            0                       # DTB write hits
system.cpu.dtb.stage2_mmu.stage2_tlb.writeMisses            0                       # DTB write misses
system.cpu.dtb.stage2_mmu.stage2_tlb.inserts            0                       # Number of times an entry is inserted into the TLB
system.cpu.dtb.stage2_mmu.stage2_tlb.flushTlb            0                       # Number of times complete TLB was flushed
system.cpu.dtb.stage2_mmu.stage2_tlb.flushTlbMva            0                       # Number of times TLB was flushed by MVA
system.cpu.dtb.stage2_mmu.stage2_tlb.flushTlbMvaAsid            0                       # Number of times TLB was flushed by MVA & ASID
system.cpu.dtb.stage2_mmu.stage2_tlb.flushTlbAsid            0                       # Number of times TLB was flushed by ASID
system.cpu.dtb.stage2_mmu.stage2_tlb.flushedEntries            0                       # Number of entries that have been flushed from TLB
system.cpu.dtb.stage2_mmu.stage2_tlb.alignFaults            0                       # Number of TLB faults due to alignment restrictions
system.cpu.dtb.stage2_mmu.stage2_tlb.prefetchFaults            0                       # Number of TLB faults due to prefetch
system.cpu.dtb.stage2_mmu.stage2_tlb.domainFaults            0                       # Number of TLB faults due to domain restrictions
system.cpu.dtb.stage2_mmu.stage2_tlb.permsFaults            0                       # Number of TLB faults due to permissions restrictions
system.cpu.dtb.stage2_mmu.stage2_tlb.readAccesses            0                       # DTB read accesses
system.cpu.dtb.stage2_mmu.stage2_tlb.writeAccesses            0                       # DTB write accesses
system.cpu.dtb.stage2_mmu.stage2_tlb.instAccesses            0                       # ITB inst accesses
system.cpu.dtb.stage2_mmu.stage2_tlb.hits            0                       # Total TLB (inst and data) hits
system.cpu.dtb.stage2_mmu.stage2_tlb.misses            0                       # Total TLB (inst and data) misses
system.cpu.dtb.stage2_mmu.stage2_tlb.accesses            0                       # Total TLB (inst and data) accesses
system.cpu.dtb.stage2_mmu.stage2_tlb.walker.walks            0                       # Table walker walks requested
system.cpu.dtb.stage2_mmu.stage2_tlb.walker.requestOrigin_Requested::Data            0                       # Table walker requests started/completed, data/inst
system.cpu.dtb.stage2_mmu.stage2_tlb.walker.requestOrigin_Requested::Inst            0                       # Table walker requests started/completed, data/inst
system.cpu.dtb.stage2_mmu.stage2_tlb.walker.requestOrigin_Requested::total            0                       # Table walker requests started/completed, data/inst
system.cpu.dtb.stage2_mmu.stage2_tlb.walker.requestOrigin_Completed::Data            0                       # Table walker requests started/completed, data/inst
system.cpu.dtb.stage2_mmu.stage2_tlb.walker.requestOrigin_Completed::Inst            0                       # Table walker requests started/completed, data/inst
system.cpu.dtb.stage2_mmu.stage2_tlb.walker.requestOrigin_Completed::total            0                       # Table walker requests started/completed, data/inst
system.cpu.dtb.stage2_mmu.stage2_tlb.walker.requestOrigin::total            0                       # Table walker requests started/completed, data/inst
system.cpu.dtb.stage2_mmu.stage2_tlb.walker.power_state.pwrStateResidencyTicks::UNDEFINED  10698958125                       # Cumulative time (in ticks) in various power states
system.cpu.dtb.walker.walks                         0                       # Table walker walks requested
system.cpu.dtb.walker.requestOrigin_Requested::Data            0                       # Table walker requests started/completed, data/inst
system.cpu.dtb.walker.requestOrigin_Requested::Inst            0                       # Table walker requests started/completed, data/inst
system.cpu.dtb.walker.requestOrigin_Requested::total            0                       # Table walker requests started/completed, data/inst
system.cpu.dtb.walker.requestOrigin_Completed::Data            0                       # Table walker requests started/completed, data/inst
system.cpu.dtb.walker.requestOrigin_Completed::Inst            0                       # Table walker requests started/completed, data/inst
system.cpu.dtb.walker.requestOrigin_Completed::total            0                       # Table walker requests started/completed, data/inst
system.cpu.dtb.walker.requestOrigin::total            0                       # Table walker requests started/completed, data/inst
system.cpu.dtb.walker.power_state.pwrStateResidencyTicks::UNDEFINED  10698958125                       # Cumulative time (in ticks) in various power states
system.cpu.dtb_walker_cache.blocked_cycles::no_mshrs            0                       # number of cycles access was blocked
system.cpu.dtb_walker_cache.blocked_cycles::no_targets            0                       # number of cycles access was blocked
system.cpu.dtb_walker_cache.blocked::no_mshrs            0                       # number of cycles access was blocked
system.cpu.dtb_walker_cache.blocked::no_targets            0                       # number of cycles access was blocked
system.cpu.dtb_walker_cache.avg_blocked_cycles::no_mshrs          nan                       # average number of cycles each access was blocked
system.cpu.dtb_walker_cache.avg_blocked_cycles::no_targets          nan                       # average number of cycles each access was blocked
system.cpu.dtb_walker_cache.replacements            0                       # number of replacements
system.cpu.dtb_walker_cache.power_state.pwrStateResidencyTicks::UNDEFINED  10698958125                       # Cumulative time (in ticks) in various power states
system.cpu.dtb_walker_cache.tags.tagsinuse            0                       # Cycle average of tags in use
system.cpu.dtb_walker_cache.tags.total_refs            0                       # Total number of references to valid blocks.
system.cpu.dtb_walker_cache.tags.sampled_refs            0                       # Sample count of references to valid blocks.
system.cpu.dtb_walker_cache.tags.avg_refs          nan                       # Average number of references to valid blocks.
system.cpu.dtb_walker_cache.tags.warmup_cycle            0                       # Cycle when the warmup percentage was hit.
system.cpu.dtb_walker_cache.tags.tag_accesses            0                       # Number of tag accesses
system.cpu.dtb_walker_cache.tags.data_accesses            0                       # Number of data accesses
system.cpu.dtb_walker_cache.tags.power_state.pwrStateResidencyTicks::UNDEFINED  10698958125                       # Cumulative time (in ticks) in various power states
system.cpu.fetch.icacheStallCycles              48548                       # Number of cycles fetch is stalled on an Icache miss
system.cpu.fetch.insts                       34378229                       # Number of instructions fetch has processed
system.cpu.fetch.branches                     3224630                       # Number of branches that fetch encountered
system.cpu.fetch.predictedBranches            3218680                       # Number of branches that fetch has predicted taken
system.cpu.fetch.cycles                      16995577                       # Number of cycles fetch has run and was not squashing or blocked
system.cpu.fetch.squashCycles                   64744                       # Number of cycles fetch has spent squashing
system.cpu.fetch.miscStallCycles                  216                       # Number of cycles fetch has spent waiting on interrupts,or bad addresses, or out of MSHRs
system.cpu.fetch.pendingTrapStallCycles            87                       # Number of stall cycles due to pending traps
system.cpu.fetch.icacheWaitRetryStallCycles          724                       # Number of stall cycles due to full MSHR
system.cpu.fetch.cacheLines                  10963660                       # Number of cache lines fetched
system.cpu.fetch.icacheSquashes                   481                       # Number of outstanding Icache misses that were squashed
system.cpu.fetch.nisnDist::samples           17077524                       # Number of instructions fetched each cycle (Total)
system.cpu.fetch.nisnDist::mean              2.027971                       # Number of instructions fetched each cycle (Total)
system.cpu.fetch.nisnDist::stdev             0.953448                       # Number of instructions fetched each cycle (Total)
system.cpu.fetch.nisnDist::underflows               0      0.00%      0.00% # Number of instructions fetched each cycle (Total)
system.cpu.fetch.nisnDist::0                   133648      0.78%      0.78% # Number of instructions fetched each cycle (Total)
system.cpu.fetch.nisnDist::1                  7129167     41.75%     42.53% # Number of instructions fetched each cycle (Total)
system.cpu.fetch.nisnDist::2                  1940575     11.36%     53.89% # Number of instructions fetched each cycle (Total)
system.cpu.fetch.nisnDist::3                  7874134     46.11%    100.00% # Number of instructions fetched each cycle (Total)
system.cpu.fetch.nisnDist::overflows                0      0.00%    100.00% # Number of instructions fetched each cycle (Total)
system.cpu.fetch.nisnDist::min_value                0                       # Number of instructions fetched each cycle (Total)
system.cpu.fetch.nisnDist::max_value                3                       # Number of instructions fetched each cycle (Total)
system.cpu.fetch.nisnDist::total             17077524                       # Number of instructions fetched each cycle (Total)
system.cpu.fetch.branchRate                  0.188373                       # Number of branch fetches per cycle
system.cpu.fetch.rate                        2.008270                       # Number of inst fetches per cycle
system.cpu.icache.demand_hits::.cpu.inst     10962709                       # number of demand (read+write) hits
system.cpu.icache.demand_hits::total         10962709                       # number of demand (read+write) hits
system.cpu.icache.overall_hits::.cpu.inst     10962709                       # number of overall hits
system.cpu.icache.overall_hits::total        10962709                       # number of overall hits
system.cpu.icache.demand_misses::.cpu.inst          947                       # number of demand (read+write) misses
system.cpu.icache.demand_misses::total            947                       # number of demand (read+write) misses
system.cpu.icache.overall_misses::.cpu.inst          947                       # number of overall misses
system.cpu.icache.overall_misses::total           947                       # number of overall misses
system.cpu.icache.demand_miss_latency::.cpu.inst     55037611                       # number of demand (read+write) miss cycles
system.cpu.icache.demand_miss_latency::total     55037611                       # number of demand (read+write) miss cycles
system.cpu.icache.overall_miss_latency::.cpu.inst     55037611                       # number of overall miss cycles
system.cpu.icache.overall_miss_latency::total     55037611                       # number of overall miss cycles
system.cpu.icache.demand_accesses::.cpu.inst     10963656                       # number of demand (read+write) accesses
system.cpu.icache.demand_accesses::total     10963656                       # number of demand (read+write) accesses
system.cpu.icache.overall_accesses::.cpu.inst     10963656                       # number of overall (read+write) accesses
system.cpu.icache.overall_accesses::total     10963656                       # number of overall (read+write) accesses
system.cpu.icache.demand_miss_rate::.cpu.inst     0.000086                       # miss rate for demand accesses
system.cpu.icache.demand_miss_rate::total     0.000086                       # miss rate for demand accesses
system.cpu.icache.overall_miss_rate::.cpu.inst     0.000086                       # miss rate for overall accesses
system.cpu.icache.overall_miss_rate::total     0.000086                       # miss rate for overall accesses
system.cpu.icache.demand_avg_miss_latency::.cpu.inst 58117.857445                       # average overall miss latency
system.cpu.icache.demand_avg_miss_latency::total 58117.857445                       # average overall miss latency
system.cpu.icache.overall_avg_miss_latency::.cpu.inst 58117.857445                       # average overall miss latency
system.cpu.icache.overall_avg_miss_latency::total 58117.857445                       # average overall miss latency
system.cpu.icache.blocked_cycles::no_mshrs        14084                       # number of cycles access was blocked
system.cpu.icache.blocked_cycles::no_targets            0                       # number of cycles access was blocked
system.cpu.icache.blocked::no_mshrs               211                       # number of cycles access was blocked
system.cpu.icache.blocked::no_targets               0                       # number of cycles access was blocked
system.cpu.icache.avg_blocked_cycles::no_mshrs    66.748815                       # average number of cycles each access was blocked
system.cpu.icache.avg_blocked_cycles::no_targets          nan                       # average number of cycles each access was blocked
system.cpu.icache.writebacks::.writebacks          305                       # number of writebacks
system.cpu.icache.writebacks::total               305                       # number of writebacks
system.cpu.icache.demand_mshr_hits::.cpu.inst          150                       # number of demand (read+write) MSHR hits
system.cpu.icache.demand_mshr_hits::total          150                       # number of demand (read+write) MSHR hits
system.cpu.icache.overall_mshr_hits::.cpu.inst          150                       # number of overall MSHR hits
system.cpu.icache.overall_mshr_hits::total          150                       # number of overall MSHR hits
system.cpu.icache.demand_mshr_misses::.cpu.inst          797                       # number of demand (read+write) MSHR misses
system.cpu.icache.demand_mshr_misses::total          797                       # number of demand (read+write) MSHR misses
system.cpu.icache.overall_mshr_misses::.cpu.inst          797                       # number of overall MSHR misses
system.cpu.icache.overall_mshr_misses::total          797                       # number of overall MSHR misses
system.cpu.icache.demand_mshr_miss_latency::.cpu.inst     48131363                       # number of demand (read+write) MSHR miss cycles
system.cpu.icache.demand_mshr_miss_latency::total     48131363                       # number of demand (read+write) MSHR miss cycles
system.cpu.icache.overall_mshr_miss_latency::.cpu.inst     48131363                       # number of overall MSHR miss cycles
system.cpu.icache.overall_mshr_miss_latency::total     48131363                       # number of overall MSHR miss cycles
system.cpu.icache.demand_mshr_miss_rate::.cpu.inst     0.000073                       # mshr miss rate for demand accesses
system.cpu.icache.demand_mshr_miss_rate::total     0.000073                       # mshr miss rate for demand accesses
system.cpu.icache.overall_mshr_miss_rate::.cpu.inst     0.000073                       # mshr miss rate for overall accesses
system.cpu.icache.overall_mshr_miss_rate::total     0.000073                       # mshr miss rate for overall accesses
system.cpu.icache.demand_avg_mshr_miss_latency::.cpu.inst 60390.668758                       # average overall mshr miss latency
system.cpu.icache.demand_avg_mshr_miss_latency::total 60390.668758                       # average overall mshr miss latency
system.cpu.icache.overall_avg_mshr_miss_latency::.cpu.inst 60390.668758                       # average overall mshr miss latency
system.cpu.icache.overall_avg_mshr_miss_latency::total 60390.668758                       # average overall mshr miss latency
system.cpu.icache.replacements                    305                       # number of replacements
system.cpu.icache.ReadReq_hits::.cpu.inst     10962709                       # number of ReadReq hits
system.cpu.icache.ReadReq_hits::total        10962709                       # number of ReadReq hits
system.cpu.icache.ReadReq_misses::.cpu.inst          947                       # number of ReadReq misses
system.cpu.icache.ReadReq_misses::total           947                       # number of ReadReq misses
system.cpu.icache.ReadReq_miss_latency::.cpu.inst     55037611                       # number of ReadReq miss cycles
system.cpu.icache.ReadReq_miss_latency::total     55037611                       # number of ReadReq miss cycles
system.cpu.icache.ReadReq_accesses::.cpu.inst     10963656                       # number of ReadReq accesses(hits+misses)
system.cpu.icache.ReadReq_accesses::total     10963656                       # number of ReadReq accesses(hits+misses)
system.cpu.icache.ReadReq_miss_rate::.cpu.inst     0.000086                       # miss rate for ReadReq accesses
system.cpu.icache.ReadReq_miss_rate::total     0.000086                       # miss rate for ReadReq accesses
system.cpu.icache.ReadReq_avg_miss_latency::.cpu.inst 58117.857445                       # average ReadReq miss latency
system.cpu.icache.ReadReq_avg_miss_latency::total 58117.857445                       # average ReadReq miss latency
system.cpu.icache.ReadReq_mshr_hits::.cpu.inst          150                       # number of ReadReq MSHR hits
system.cpu.icache.ReadReq_mshr_hits::total          150                       # number of ReadReq MSHR hits
system.cpu.icache.ReadReq_mshr_misses::.cpu.inst          797                       # number of ReadReq MSHR misses
system.cpu.icache.ReadReq_mshr_misses::total          797                       # number of ReadReq MSHR misses
system.cpu.icache.ReadReq_mshr_miss_latency::.cpu.inst     48131363                       # number of ReadReq MSHR miss cycles
system.cpu.icache.ReadReq_mshr_miss_latency::total     48131363                       # number of ReadReq MSHR miss cycles
system.cpu.icache.ReadReq_mshr_miss_rate::.cpu.inst     0.000073                       # mshr miss rate for ReadReq accesses
system.cpu.icache.ReadReq_mshr_miss_rate::total     0.000073                       # mshr miss rate for ReadReq accesses
system.cpu.icache.ReadReq_avg_mshr_miss_latency::.cpu.inst 60390.668758                       # average ReadReq mshr miss latency
system.cpu.icache.ReadReq_avg_mshr_miss_latency::total 60390.668758                       # average ReadReq mshr miss latency
system.cpu.icache.power_state.pwrStateResidencyTicks::UNDEFINED  10698958125                       # Cumulative time (in ticks) in various power states
system.cpu.icache.tags.tagsinuse           416.326963                       # Cycle average of tags in use
system.cpu.icache.tags.total_refs            10963506                       # Total number of references to valid blocks.
system.cpu.icache.tags.sampled_refs               797                       # Sample count of references to valid blocks.
system.cpu.icache.tags.avg_refs          13755.967378                       # Average number of references to valid blocks.
system.cpu.icache.tags.warmup_cycle             77000                       # Cycle when the warmup percentage was hit.
system.cpu.icache.tags.occ_blocks::.cpu.inst   416.326963                       # Average occupied blocks per requestor
system.cpu.icache.tags.occ_percent::.cpu.inst     0.813139                       # Average percentage of cache occupancy
system.cpu.icache.tags.occ_percent::total     0.813139                       # Average percentage of cache occupancy
system.cpu.icache.tags.occ_task_id_blocks::1024          492                       # Occupied blocks per task id
system.cpu.icache.tags.age_task_id_blocks_1024::0           75                       # Occupied blocks per task id
system.cpu.icache.tags.age_task_id_blocks_1024::1          193                       # Occupied blocks per task id
system.cpu.icache.tags.age_task_id_blocks_1024::4          224                       # Occupied blocks per task id
system.cpu.icache.tags.occ_task_id_percent::1024     0.960938                       # Percentage of cache occupancy per task id
system.cpu.icache.tags.tag_accesses          43855421                       # Number of tag accesses
system.cpu.icache.tags.data_accesses         43855421                       # Number of data accesses
system.cpu.icache.tags.power_state.pwrStateResidencyTicks::UNDEFINED  10698958125                       # Cumulative time (in ticks) in various power states
system.cpu.itb.instHits                             0                       # ITB inst hits
system.cpu.itb.instMisses                           0                       # ITB inst misses
system.cpu.itb.readHits                             0                       # DTB read hits
system.cpu.itb.readMisses                           0                       # DTB read misses
system.cpu.itb.writeHits                            0                       # DTB write hits
system.cpu.itb.writeMisses                          0                       # DTB write misses
system.cpu.itb.inserts                              0                       # Number of times an entry is inserted into the TLB
system.cpu.itb.flushTlb                             0                       # Number of times complete TLB was flushed
system.cpu.itb.flushTlbMva                          0                       # Number of times TLB was flushed by MVA
system.cpu.itb.flushTlbMvaAsid                      0                       # Number of times TLB was flushed by MVA & ASID
system.cpu.itb.flushTlbAsid                         0                       # Number of times TLB was flushed by ASID
system.cpu.itb.flushedEntries                       0                       # Number of entries that have been flushed from TLB
system.cpu.itb.alignFaults                          0                       # Number of TLB faults due to alignment restrictions
system.cpu.itb.prefetchFaults                       0                       # Number of TLB faults due to prefetch
system.cpu.itb.domainFaults                         0                       # Number of TLB faults due to domain restrictions
system.cpu.itb.permsFaults                          0                       # Number of TLB faults due to permissions restrictions
system.cpu.itb.readAccesses                         0                       # DTB read accesses
system.cpu.itb.writeAccesses                        0                       # DTB write accesses
system.cpu.itb.instAccesses                         0                       # ITB inst accesses
system.cpu.itb.hits                                 0                       # Total TLB (inst and data) hits
system.cpu.itb.misses                               0                       # Total TLB (inst and data) misses
system.cpu.itb.accesses                             0                       # Total TLB (inst and data) accesses
system.cpu.itb.stage2_mmu.stage2_tlb.instHits            0                       # ITB inst hits
system.cpu.itb.stage2_mmu.stage2_tlb.instMisses            0                       # ITB inst misses
system.cpu.itb.stage2_mmu.stage2_tlb.readHits            0                       # DTB read hits
system.cpu.itb.stage2_mmu.stage2_tlb.readMisses            0                       # DTB read misses
system.cpu.itb.stage2_mmu.stage2_tlb.writeHits            0                       # DTB write hits
system.cpu.itb.stage2_mmu.stage2_tlb.writeMisses            0                       # DTB write misses
system.cpu.itb.stage2_mmu.stage2_tlb.inserts            0                       # Number of times an entry is inserted into the TLB
system.cpu.itb.stage2_mmu.stage2_tlb.flushTlb            0                       # Number of times complete TLB was flushed
[...]
system.mem_ctrls.requestorReadTotalLat::.cpu.data     40601750                       # Per-requestor read total memory access latency
system.mem_ctrls.requestorWriteTotalLat::.writebacks 277600300500                       # Per-requestor write total memory access latency
system.mem_ctrls.requestorReadAvgLat::.cpu.inst     28902.13                       # Per-requestor read average memory access latency
system.mem_ctrls.requestorReadAvgLat::.cpu.data     29315.34                       # Per-requestor read average memory access latency
system.mem_ctrls.requestorWriteAvgLat::.writebacks 243082574.87                       # Per-requestor write average memory access latency
system.mem_ctrls.dram.bytes_read::.cpu.inst        51008                       # Number of bytes read from this memory
system.mem_ctrls.dram.bytes_read::.cpu.data        88640                       # Number of bytes read from this memory
system.mem_ctrls.dram.bytes_read::total        139648                       # Number of bytes read from this memory
system.mem_ctrls.dram.bytes_inst_read::.cpu.inst        51008                       # Number of instructions bytes read from this memory
system.mem_ctrls.dram.bytes_inst_read::total        51008                       # Number of instructions bytes read from this memory
system.mem_ctrls.dram.bytes_written::.writebacks        50048                       # Number of bytes written to this memory
system.mem_ctrls.dram.bytes_written::total        50048                       # Number of bytes written to this memory
system.mem_ctrls.dram.num_reads::.cpu.inst          797                       # Number of read requests responded to by this memory
system.mem_ctrls.dram.num_reads::.cpu.data         1385                       # Number of read requests responded to by this memory
system.mem_ctrls.dram.num_reads::total           2182                       # Number of read requests responded to by this memory
system.mem_ctrls.dram.num_writes::.writebacks          782                       # Number of write requests responded to by this memory
system.mem_ctrls.dram.num_writes::total           782                       # Number of write requests responded to by this memory
system.mem_ctrls.dram.bw_read::.cpu.inst      4767567                       # Total read bandwidth from this memory (bytes/s)
system.mem_ctrls.dram.bw_read::.cpu.data      8284919                       # Total read bandwidth from this memory (bytes/s)
system.mem_ctrls.dram.bw_read::total         13052486                       # Total read bandwidth from this memory (bytes/s)
system.mem_ctrls.dram.bw_inst_read::.cpu.inst      4767567                       # Instruction read bandwidth from this memory (bytes/s)
system.mem_ctrls.dram.bw_inst_read::total      4767567                       # Instruction read bandwidth from this memory (bytes/s)
system.mem_ctrls.dram.bw_write::.writebacks      4677839                       # Write bandwidth from this memory (bytes/s)
system.mem_ctrls.dram.bw_write::total         4677839                       # Write bandwidth from this memory (bytes/s)
system.mem_ctrls.dram.bw_total::.writebacks      4677839                       # Total bandwidth to/from this memory (bytes/s)
system.mem_ctrls.dram.bw_total::.cpu.inst      4767567                       # Total bandwidth to/from this memory (bytes/s)
system.mem_ctrls.dram.bw_total::.cpu.data      8284919                       # Total bandwidth to/from this memory (bytes/s)
system.mem_ctrls.dram.bw_total::total        17730325                       # Total bandwidth to/from this memory (bytes/s)
system.mem_ctrls.dram.readBursts                 2175                       # Number of DRAM read bursts
system.mem_ctrls.dram.writeBursts                1113                       # Number of DRAM write bursts
system.mem_ctrls.dram.perBankRdBursts::0          227                       # Per bank write bursts
system.mem_ctrls.dram.perBankRdBursts::1           76                       # Per bank write bursts
system.mem_ctrls.dram.perBankRdBursts::2           91                       # Per bank write bursts
system.mem_ctrls.dram.perBankRdBursts::3          127                       # Per bank write bursts
system.mem_ctrls.dram.perBankRdBursts::4          135                       # Per bank write bursts
system.mem_ctrls.dram.perBankRdBursts::5           89                       # Per bank write bursts
system.mem_ctrls.dram.perBankRdBursts::6           83                       # Per bank write bursts
system.mem_ctrls.dram.perBankRdBursts::7           80                       # Per bank write bursts
system.mem_ctrls.dram.perBankRdBursts::8          175                       # Per bank write bursts
system.mem_ctrls.dram.perBankRdBursts::9          168                       # Per bank write bursts
system.mem_ctrls.dram.perBankRdBursts::10          183                       # Per bank write bursts
system.mem_ctrls.dram.perBankRdBursts::11          166                       # Per bank write bursts
system.mem_ctrls.dram.perBankRdBursts::12          165                       # Per bank write bursts
system.mem_ctrls.dram.perBankRdBursts::13          128                       # Per bank write bursts
system.mem_ctrls.dram.perBankRdBursts::14          136                       # Per bank write bursts
system.mem_ctrls.dram.perBankRdBursts::15          146                       # Per bank write bursts
system.mem_ctrls.dram.perBankWrBursts::0          132                       # Per bank write bursts
system.mem_ctrls.dram.perBankWrBursts::1           21                       # Per bank write bursts
system.mem_ctrls.dram.perBankWrBursts::2           31                       # Per bank write bursts
system.mem_ctrls.dram.perBankWrBursts::3           19                       # Per bank write bursts
system.mem_ctrls.dram.perBankWrBursts::4           66                       # Per bank write bursts
system.mem_ctrls.dram.perBankWrBursts::5           43                       # Per bank write bursts
system.mem_ctrls.dram.perBankWrBursts::6           25                       # Per bank write bursts
system.mem_ctrls.dram.perBankWrBursts::7           27                       # Per bank write bursts
system.mem_ctrls.dram.perBankWrBursts::8           86                       # Per bank write bursts
system.mem_ctrls.dram.perBankWrBursts::9          103                       # Per bank write bursts
system.mem_ctrls.dram.perBankWrBursts::10           75                       # Per bank write bursts
system.mem_ctrls.dram.perBankWrBursts::11           54                       # Per bank write bursts
system.mem_ctrls.dram.perBankWrBursts::12           80                       # Per bank write bursts
system.mem_ctrls.dram.perBankWrBursts::13          121                       # Per bank write bursts
system.mem_ctrls.dram.perBankWrBursts::14          117                       # Per bank write bursts
system.mem_ctrls.dram.perBankWrBursts::15          113                       # Per bank write bursts
system.mem_ctrls.dram.totQLat                22855500                       # Total ticks spent queuing
system.mem_ctrls.dram.totBusLat              10875000                       # Total ticks spent in databus transfers
system.mem_ctrls.dram.totMemAccLat           63636750                       # Total ticks spent from burst creation until serviced by the DRAM
system.mem_ctrls.dram.avgQLat                10508.28                       # Average queueing delay per DRAM burst
system.mem_ctrls.dram.avgBusLat               5000.00                       # Average bus latency per DRAM burst
system.mem_ctrls.dram.avgMemAccLat           29258.28                       # Average memory access latency per DRAM burst
system.mem_ctrls.dram.readRowHits                1815                       # Number of row buffer hits during reads
system.mem_ctrls.dram.writeRowHits                921                       # Number of row buffer hits during writes
system.mem_ctrls.dram.readRowHitRate            83.45                       # Row buffer hit rate for reads
system.mem_ctrls.dram.writeRowHitRate           82.75                       # Row buffer hit rate for writes
system.mem_ctrls.dram.bytesPerActivate::samples          547                       # Bytes accessed per row activation
system.mem_ctrls.dram.bytesPerActivate::mean   383.882998                       # Bytes accessed per row activation
system.mem_ctrls.dram.bytesPerActivate::gmean   235.774472                       # Bytes accessed per row activation
system.mem_ctrls.dram.bytesPerActivate::stdev   354.807301                       # Bytes accessed per row activation
system.mem_ctrls.dram.bytesPerActivate::0-127          145     26.51%     26.51% # Bytes accessed per row activation
system.mem_ctrls.dram.bytesPerActivate::128-255          127     23.22%     49.73% # Bytes accessed per row activation
system.mem_ctrls.dram.bytesPerActivate::256-383           68     12.43%     62.16% # Bytes accessed per row activation
system.mem_ctrls.dram.bytesPerActivate::384-511           39      7.13%     69.29% # Bytes accessed per row activation
system.mem_ctrls.dram.bytesPerActivate::512-639           30      5.48%     74.77% # Bytes accessed per row activation
system.mem_ctrls.dram.bytesPerActivate::640-767           23      4.20%     78.98% # Bytes accessed per row activation
system.mem_ctrls.dram.bytesPerActivate::768-895           11      2.01%     80.99% # Bytes accessed per row activation
system.mem_ctrls.dram.bytesPerActivate::896-1023           11      2.01%     83.00% # Bytes accessed per row activation
system.mem_ctrls.dram.bytesPerActivate::1024-1151           93     17.00%    100.00% # Bytes accessed per row activation
system.mem_ctrls.dram.bytesPerActivate::total          547                       # Bytes accessed per row activation
system.mem_ctrls.dram.bytesRead                139200                       # Total number of bytes read from DRAM
system.mem_ctrls.dram.bytesWritten              71232                       # Total number of bytes written to DRAM
system.mem_ctrls.dram.avgRdBW               13.010613                       # Average DRAM read bandwidth in MiBytes/s
system.mem_ctrls.dram.avgWrBW                6.657845                       # Average DRAM write bandwidth in MiBytes/s
system.mem_ctrls.dram.peakBW                 12800.00                       # Theoretical peak bandwidth in MiByte/s
system.mem_ctrls.dram.busUtil                    0.15                       # Data bus utilization in percentage
system.mem_ctrls.dram.busUtilRead                0.10                       # Data bus utilization in percentage for reads
system.mem_ctrls.dram.busUtilWrite               0.05                       # Data bus utilization in percentage for writes
system.mem_ctrls.dram.pageHitRate               83.21                       # Row buffer hit rate, read and write combined
system.mem_ctrls.dram.power_state.pwrStateResidencyTicks::UNDEFINED  10698958125                       # Cumulative time (in ticks) in various power states
system.mem_ctrls.dram.rank0.actEnergy         1763580                       # Energy for activate commands per rank (pJ)
system.mem_ctrls.dram.rank0.preEnergy          922185                       # Energy for precharge commands per rank (pJ)
system.mem_ctrls.dram.rank0.readEnergy        6483120                       # Energy for read commands per rank (pJ)
system.mem_ctrls.dram.rank0.writeEnergy       1900080                       # Energy for write commands per rank (pJ)
system.mem_ctrls.dram.rank0.refreshEnergy 844515360.000000                       # Energy for refresh commands per rank (pJ)
system.mem_ctrls.dram.rank0.actBackEnergy    201052680                       # Energy for active background per rank (pJ)
system.mem_ctrls.dram.rank0.preBackEnergy   3939092640                       # Energy for precharge background per rank (pJ)
system.mem_ctrls.dram.rank0.actPowerDownEnergy            0                       # Energy for active power-down per rank (pJ)
system.mem_ctrls.dram.rank0.prePowerDownEnergy            0                       # Energy for precharge power-down per rank (pJ)
system.mem_ctrls.dram.rank0.selfRefreshEnergy            0                       # Energy for self refresh per rank (pJ)
system.mem_ctrls.dram.rank0.totalEnergy    4995729645                       # Total energy per rank (pJ)
system.mem_ctrls.dram.rank0.averagePower   466.936087                       # Core power per rank (mW)
system.mem_ctrls.dram.rank0.totalIdleTime            0                       # Total Idle time Per DRAM Rank
system.mem_ctrls.dram.rank0.pwrStateTime::IDLE  10238883125                       # Time in different power states
system.mem_ctrls.dram.rank0.pwrStateTime::REF    357240000                       # Time in different power states
system.mem_ctrls.dram.rank0.pwrStateTime::SREF            0                       # Time in different power states
system.mem_ctrls.dram.rank0.pwrStateTime::PRE_PDN            0                       # Time in different power states
system.mem_ctrls.dram.rank0.pwrStateTime::ACT    102835000                       # Time in different power states
system.mem_ctrls.dram.rank0.pwrStateTime::ACT_PDN            0                       # Time in different power states
system.mem_ctrls.dram.rank1.actEnergy         2177700                       # Energy for activate commands per rank (pJ)
system.mem_ctrls.dram.rank1.preEnergy         1153680                       # Energy for precharge commands per rank (pJ)
system.mem_ctrls.dram.rank1.readEnergy        9046380                       # Energy for read commands per rank (pJ)
system.mem_ctrls.dram.rank1.writeEnergy       3909780                       # Energy for write commands per rank (pJ)
system.mem_ctrls.dram.rank1.refreshEnergy 844515360.000000                       # Energy for refresh commands per rank (pJ)
system.mem_ctrls.dram.rank1.actBackEnergy    208405680                       # Energy for active background per rank (pJ)
system.mem_ctrls.dram.rank1.preBackEnergy   3932900640                       # Energy for precharge background per rank (pJ)
system.mem_ctrls.dram.rank1.actPowerDownEnergy            0                       # Energy for active power-down per rank (pJ)
system.mem_ctrls.dram.rank1.prePowerDownEnergy            0                       # Energy for precharge power-down per rank (pJ)
system.mem_ctrls.dram.rank1.selfRefreshEnergy            0                       # Energy for self refresh per rank (pJ)
system.mem_ctrls.dram.rank1.totalEnergy    5002109220                       # Total energy per rank (pJ)
system.mem_ctrls.dram.rank1.averagePower   467.532367                       # Core power per rank (mW)
system.mem_ctrls.dram.rank1.totalIdleTime            0                       # Total Idle time Per DRAM Rank
system.mem_ctrls.dram.rank1.pwrStateTime::IDLE  10222773750                       # Time in different power states
system.mem_ctrls.dram.rank1.pwrStateTime::REF    357240000                       # Time in different power states
system.mem_ctrls.dram.rank1.pwrStateTime::SREF            0                       # Time in different power states
system.mem_ctrls.dram.rank1.pwrStateTime::PRE_PDN            0                       # Time in different power states
system.mem_ctrls.dram.rank1.pwrStateTime::ACT    118944375                       # Time in different power states
system.mem_ctrls.dram.rank1.pwrStateTime::ACT_PDN            0                       # Time in different power states
system.mem_ctrls.power_state.pwrStateResidencyTicks::UNDEFINED  10698958125                       # Cumulative time (in ticks) in various power states
system.membus.trans_dist::ReadResp               1024                       # Transaction distribution
system.membus.trans_dist::WritebackDirty          782                       # Transaction distribution
system.membus.trans_dist::WritebackClean          396                       # Transaction distribution
system.membus.trans_dist::ReadExReq              1158                       # Transaction distribution
system.membus.trans_dist::ReadExResp             1158                       # Transaction distribution
system.membus.trans_dist::ReadCleanReq            797                       # Transaction distribution
system.membus.trans_dist::ReadSharedReq           227                       # Transaction distribution
system.membus.pkt_count_system.cpu.icache.mem_side_port::system.mem_ctrls.port         1899                       # Packet count per connected requestor and responder (bytes)
system.membus.pkt_count_system.cpu.dcache.mem_side_port::system.mem_ctrls.port         3643                       # Packet count per connected requestor and responder (bytes)
system.membus.pkt_count::total                   5542                       # Packet count per connected requestor and responder (bytes)
system.membus.pkt_size_system.cpu.icache.mem_side_port::system.mem_ctrls.port        70528                       # Cumulative packet size per connected requestor and responder (bytes)
system.membus.pkt_size_system.cpu.dcache.mem_side_port::system.mem_ctrls.port       144512                       # Cumulative packet size per connected requestor and responder (bytes)
system.membus.pkt_size::total                  215040                       # Cumulative packet size per connected requestor and responder (bytes)
system.membus.snoops                                0                       # Total snoops (count)
system.membus.snoopTraffic                          0                       # Total snoop traffic (bytes)
system.membus.snoop_fanout::samples              2182                       # Request fanout histogram
system.membus.snoop_fanout::mean             0.023831                       # Request fanout histogram
system.membus.snoop_fanout::stdev            0.152558                       # Request fanout histogram
system.membus.snoop_fanout::underflows              0      0.00%      0.00% # Request fanout histogram
system.membus.snoop_fanout::0                    2130     97.62%     97.62% # Request fanout histogram
system.membus.snoop_fanout::1                      52      2.38%    100.00% # Request fanout histogram
system.membus.snoop_fanout::2                       0      0.00%    100.00% # Request fanout histogram
system.membus.snoop_fanout::3                       0      0.00%    100.00% # Request fanout histogram
system.membus.snoop_fanout::4                       0      0.00%    100.00% # Request fanout histogram
system.membus.snoop_fanout::overflows               0      0.00%    100.00% # Request fanout histogram
system.membus.snoop_fanout::min_value               0                       # Request fanout histogram
system.membus.snoop_fanout::max_value               1                       # Request fanout histogram
system.membus.snoop_fanout::total                2182                       # Request fanout histogram
system.membus.power_state.pwrStateResidencyTicks::UNDEFINED  10698958125                       # Cumulative time (in ticks) in various power states
system.membus.reqLayer0.occupancy             9304125                       # Layer occupancy (ticks)
system.membus.reqLayer0.utilization               0.1                       # Layer utilization (%)
system.membus.respLayer1.occupancy            4236000                       # Layer occupancy (ticks)
system.membus.respLayer1.utilization              0.0                       # Layer utilization (%)
system.membus.respLayer2.occupancy            7300000                       # Layer occupancy (ticks)
system.membus.respLayer2.utilization              0.1                       # Layer utilization (%)
system.voltage_domain.voltage                       1                       # Voltage in Volts

---------- End Simulation Statistics   ----------
