
---------- Begin Simulation Statistics ----------
final_tick                                50624709375                       # Number of ticks from beginning of simulation (restored from checkpoints and never reset)
host_inst_rate                                 299176                       # Simulator instruction rate (inst/s)
host_mem_usage                                 656044                       # Number of bytes of host memory used
host_op_rate                                   299183                       # Simulator op (including micro ops) rate (op/s)
host_seconds                                   334.25                       # Real time elapsed on the host
host_tick_rate                              151457195                       # Simulator tick rate (ticks/s)
sim_freq                                 1000000000000                       # Frequency of simulated ticks
sim_insts                                   100000000                       # Number of instructions simulated
sim_ops                                     100002034                       # Number of ops (including micro ops) simulated
sim_seconds                                  0.050625                       # Number of seconds simulated
sim_ticks                                 50624709375                       # Number of ticks simulated
system.cpu.cc_regfile_reads                 355146582                       # number of cc regfile reads
system.cpu.cc_regfile_writes                 42290761                       # number of cc regfile writes
system.cpu.committedInsts                   100000000                       # Number of Instructions Simulated
system.cpu.committedOps                     100002034                       # Number of Ops (including micro ops) Simulated
system.cpu.cpi                               0.809995                       # CPI: Cycles Per Instruction
system.cpu.cpi_total                         0.809995                       # CPI: Total CPI of All Threads
system.cpu.idleCycles                           23428                       # Total number of cycles that the CPU has spent unscheduled due to idling
system.cpu.iew.branchMispredicts                27763                       # Number of branch mispredicts detected at execute
system.cpu.iew.branch_mispredict_rate        0.467913                       # Percentage of branch mispredicts
system.cpu.iew.branch_percentage             5.925787                       # Percentage of branches executed
system.cpu.iew.exec_branches                  5933372                       # Number of branches executed
system.cpu.iew.exec_nop                             1                       # number of nop insts executed
system.cpu.iew.exec_rate                     1.236155                       # Inst execution rate
system.cpu.iew.exec_refs                     38801643                       # number of memory reference insts executed
system.cpu.iew.exec_stores                   18116068                       # Number of stores executed
system.cpu.iew.exec_swp                             0                       # number of swp insts executed
system.cpu.iew.iewBlockCycles                 2268549                       # Number of cycles IEW is blocking
system.cpu.iew.iewDispLoadInsts              20713984                       # Number of dispatched load instructions
system.cpu.iew.iewDispNonSpecInsts                 32                       # Number of dispatched non-speculative instructions
system.cpu.iew.iewDispSquashedInsts                 0                       # Number of squashed instructions skipped by dispatch
system.cpu.iew.iewDispStoreInsts             18149001                       # Number of dispatched store instructions
system.cpu.iew.iewDispatchedInsts           100270635                       # Number of instructions dispatched to IQ
system.cpu.iew.iewExecLoadInsts              20685575                       # Number of load instructions executed
system.cpu.iew.iewExecSquashedInsts             48341                       # Number of squashed instructions skipped in execute
system.cpu.iew.iewExecutedInsts             100128006                       # Number of executed instructions
system.cpu.iew.iewIQFullEvents                 150781                       # Number of times the IQ has become full, causing a stall
system.cpu.iew.iewIdleCycles                        0                       # Number of cycles IEW is idle
system.cpu.iew.iewLSQFullEvents                   223                       # Number of times the LSQ has become full, causing a stall
system.cpu.iew.iewSquashCycles                  34416                       # Number of cycles IEW is squashing
system.cpu.iew.iewUnblockCycles                150979                       # Number of cycles IEW is unblocking
system.cpu.iew.memOrderViolationEvents           7565                       # Number of memory order violations
system.cpu.iew.predictedNotTakenIncorrect         6301                       # Number of branches that were predicted not taken incorrectly
system.cpu.iew.predictedTakenIncorrect          21462                       # Number of branches that were predicted taken incorrectly
system.cpu.iew.wb_consumers                 147534310                       # num instructions consuming a value
system.cpu.iew.wb_count                     100119680                       # cumulative count of insts written-back
system.cpu.iew.wb_fanout                     0.487362                       # average fanout of values written-back
system.cpu.iew.wb_producers                  71902598                       # num instructions producing a value
system.cpu.iew.wb_rate                       1.236053                       # insts written-back per cycle
system.cpu.iew.wb_sent                      100120160                       # cumulative count of insts sent to commit
system.cpu.int_regfile_reads                133158398                       # number of integer regfile reads
system.cpu.int_regfile_writes                57960879                       # number of integer regfile writes
system.cpu.ipc                               1.234575                       # IPC: Instructions Per Cycle
system.cpu.ipc_total                         1.234575                       # IPC: Total IPC of All Threads
system.cpu.iq.FU_type_0::No_OpClass                 6      0.00%      0.00% # Type of FU issued
system.cpu.iq.FU_type_0::IntAlu              61354155     61.25%     61.25% # Type of FU issued
system.cpu.iq.FU_type_0::IntMult                   12      0.00%     61.25% # Type of FU issued
system.cpu.iq.FU_type_0::IntDiv                     0      0.00%     61.25% # Type of FU issued
system.cpu.iq.FU_type_0::FloatAdd                   0      0.00%     61.25% # Type of FU issued
system.cpu.iq.FU_type_0::FloatCmp                   0      0.00%     61.25% # Type of FU issued
system.cpu.iq.FU_type_0::FloatCvt                   0      0.00%     61.25% # Type of FU issued
system.cpu.iq.FU_type_0::FloatMult                  0      0.00%     61.25% # Type of FU issued
system.cpu.iq.FU_type_0::FloatMultAcc               0      0.00%     61.25% # Type of FU issued
system.cpu.iq.FU_type_0::FloatDiv                   0      0.00%     61.25% # Type of FU issued
system.cpu.iq.FU_type_0::FloatMisc                  0      0.00%     61.25% # Type of FU issued
system.cpu.iq.FU_type_0::FloatSqrt                  0      0.00%     61.25% # Type of FU issued
system.cpu.iq.FU_type_0::SimdAdd                    0      0.00%     61.25% # Type of FU issued
system.cpu.iq.FU_type_0::SimdAddAcc                 0      0.00%     61.25% # Type of FU issued
system.cpu.iq.FU_type_0::SimdAlu                    0      0.00%     61.25% # Type of FU issued
system.cpu.iq.FU_type_0::SimdCmp                    0      0.00%     61.25% # Type of FU issued
system.cpu.iq.FU_type_0::SimdCvt                    0      0.00%     61.25% # Type of FU issued
system.cpu.iq.FU_type_0::SimdMisc                   0      0.00%     61.25% # Type of FU issued
system.cpu.iq.FU_type_0::SimdMult                   0      0.00%     61.25% # Type of FU issued
system.cpu.iq.FU_type_0::SimdMultAcc                0      0.00%     61.25% # Type of FU issued
system.cpu.iq.FU_type_0::SimdShift                  0      0.00%     61.25% # Type of FU issued
system.cpu.iq.FU_type_0::SimdShiftAcc               0      0.00%     61.25% # Type of FU issued
system.cpu.iq.FU_type_0::SimdDiv                    0      0.00%     61.25% # Type of FU issued
system.cpu.iq.FU_type_0::SimdSqrt                   0      0.00%     61.25% # Type of FU issued
system.cpu.iq.FU_type_0::SimdFloatAdd               0      0.00%     61.25% # Type of FU issued
system.cpu.iq.FU_type_0::SimdFloatAlu               0      0.00%     61.25% # Type of FU issued
system.cpu.iq.FU_type_0::SimdFloatCmp               0      0.00%     61.25% # Type of FU issued
system.cpu.iq.FU_type_0::SimdFloatCvt               0      0.00%     61.25% # Type of FU issued
system.cpu.iq.FU_type_0::SimdFloatDiv               0      0.00%     61.25% # Type of FU issued
system.cpu.iq.FU_type_0::SimdFloatMisc              4      0.00%     61.25% # Type of FU issued
system.cpu.iq.FU_type_0::SimdFloatMult              0      0.00%     61.25% # Type of FU issued
system.cpu.iq.FU_type_0::SimdFloatMultAcc            0      0.00%     61.25% # Type of FU issued
system.cpu.iq.FU_type_0::SimdFloatSqrt              0      0.00%     61.25% # Type of FU issued
system.cpu.iq.FU_type_0::SimdReduceAdd              0      0.00%     61.25% # Type of FU issued
system.cpu.iq.FU_type_0::SimdReduceAlu              0      0.00%     61.25% # Type of FU issued
system.cpu.iq.FU_type_0::SimdReduceCmp              0      0.00%     61.25% # Type of FU issued
system.cpu.iq.FU_type_0::SimdFloatReduceAdd            0      0.00%     61.25% # Type of FU issued
system.cpu.iq.FU_type_0::SimdFloatReduceCmp            0      0.00%     61.25% # Type of FU issued
system.cpu.iq.FU_type_0::SimdAes                    0      0.00%     61.25% # Type of FU issued
system.cpu.iq.FU_type_0::SimdAesMix                 0      0.00%     61.25% # Type of FU issued
system.cpu.iq.FU_type_0::SimdSha1Hash               0      0.00%     61.25% # Type of FU issued
system.cpu.iq.FU_type_0::SimdSha1Hash2              0      0.00%     61.25% # Type of FU issued
system.cpu.iq.FU_type_0::SimdSha256Hash             0      0.00%     61.25% # Type of FU issued
system.cpu.iq.FU_type_0::SimdSha256Hash2            0      0.00%     61.25% # Type of FU issued
system.cpu.iq.FU_type_0::SimdShaSigma2              0      0.00%     61.25% # Type of FU issued
system.cpu.iq.FU_type_0::SimdShaSigma3              0      0.00%     61.25% # Type of FU issued
system.cpu.iq.FU_type_0::SimdPredAlu                0      0.00%     61.25% # Type of FU issued
system.cpu.iq.FU_type_0::MemRead             20699830     20.66%     81.91% # Type of FU issued
system.cpu.iq.FU_type_0::MemWrite            18122341     18.09%    100.00% # Type of FU issued
system.cpu.iq.FU_type_0::FloatMemRead               0      0.00%    100.00% # Type of FU issued
system.cpu.iq.FU_type_0::FloatMemWrite              0      0.00%    100.00% # Type of FU issued
system.cpu.iq.FU_type_0::IprAccess                  0      0.00%    100.00% # Type of FU issued
system.cpu.iq.FU_type_0::InstPrefetch               0      0.00%    100.00% # Type of FU issued
system.cpu.iq.FU_type_0::total              100176348                       # Type of FU issued
system.cpu.iq.fp_alu_accesses                       0                       # Number of floating point alu accesses
system.cpu.iq.fp_inst_queue_reads                   0                       # Number of floating instruction queue reads
system.cpu.iq.fp_inst_queue_wakeup_accesses            0                       # Number of floating instruction queue wakeup accesses
system.cpu.iq.fp_inst_queue_writes                  0                       # Number of floating instruction queue writes
system.cpu.iq.fu_busy_cnt                     5761337                       # FU busy when requested
system.cpu.iq.fu_busy_rate                   0.057512                       # FU busy rate (busy events/executed inst)
system.cpu.iq.fu_full::No_OpClass                   0      0.00%      0.00% # attempts to use FU when none available
system.cpu.iq.fu_full::IntAlu                 3226701     56.01%     56.01% # attempts to use FU when none available
system.cpu.iq.fu_full::IntMult                      0      0.00%     56.01% # attempts to use FU when none available
system.cpu.iq.fu_full::IntDiv                       0      0.00%     56.01% # attempts to use FU when none available
system.cpu.iq.fu_full::FloatAdd                     0      0.00%     56.01% # attempts to use FU when none available
system.cpu.iq.fu_full::FloatCmp                     0      0.00%     56.01% # attempts to use FU when none available
system.cpu.iq.fu_full::FloatCvt                     0      0.00%     56.01% # attempts to use FU when none available
system.cpu.iq.fu_full::FloatMult                    0      0.00%     56.01% # attempts to use FU when none available
system.cpu.iq.fu_full::FloatMultAcc                 0      0.00%     56.01% # attempts to use FU when none available
system.cpu.iq.fu_full::FloatDiv                     0      0.00%     56.01% # attempts to use FU when none available
system.cpu.iq.fu_full::FloatMisc                    0      0.00%     56.01% # attempts to use FU when none available
system.cpu.iq.fu_full::FloatSqrt                    0      0.00%     56.01% # attempts to use FU when none available
system.cpu.iq.fu_full::SimdAdd                      0      0.00%     56.01% # attempts to use FU when none available
system.cpu.iq.fu_full::SimdAddAcc                   0      0.00%     56.01% # attempts to use FU when none available
system.cpu.iq.fu_full::SimdAlu                      0      0.00%     56.01% # attempts to use FU when none available
system.cpu.iq.fu_full::SimdCmp                      0      0.00%     56.01% # attempts to use FU when none available
system.cpu.iq.fu_full::SimdCvt                      0      0.00%     56.01% # attempts to use FU when none available
system.cpu.iq.fu_full::SimdMisc                     0      0.00%     56.01% # attempts to use FU when none available
system.cpu.iq.fu_full::SimdMult                     0      0.00%     56.01% # attempts to use FU when none available
system.cpu.iq.fu_full::SimdMultAcc                  0      0.00%     56.01% # attempts to use FU when none available
system.cpu.iq.fu_full::SimdShift                    0      0.00%     56.01% # attempts to use FU when none available
system.cpu.iq.fu_full::SimdShiftAcc                 0      0.00%     56.01% # attempts to use FU when none available
system.cpu.iq.fu_full::SimdDiv                      0      0.00%     56.01% # attempts to use FU when none available
system.cpu.iq.fu_full::SimdSqrt                     0      0.00%     56.01% # attempts to use FU when none available
system.cpu.iq.fu_full::SimdFloatAdd                 0      0.00%     56.01% # attempts to use FU when none available
system.cpu.iq.fu_full::SimdFloatAlu                 0      0.00%     56.01% # attempts to use FU when none available
system.cpu.iq.fu_full::SimdFloatCmp                 0      0.00%     56.01% # attempts to use FU when none available
system.cpu.iq.fu_full::SimdFloatCvt                 0      0.00%     56.01% # attempts to use FU when none available
system.cpu.iq.fu_full::SimdFloatDiv                 0      0.00%     56.01% # attempts to use FU when none available
system.cpu.iq.fu_full::SimdFloatMisc                0      0.00%     56.01% # attempts to use FU when none available
system.cpu.iq.fu_full::SimdFloatMult                0      0.00%     56.01% # attempts to use FU when none available
system.cpu.iq.fu_full::SimdFloatMultAcc             0      0.00%     56.01% # attempts to use FU when none available
system.cpu.iq.fu_full::SimdFloatSqrt                0      0.00%     56.01% # attempts to use FU when none available
system.cpu.iq.fu_full::SimdReduceAdd                0      0.00%     56.01% # attempts to use FU when none available
system.cpu.iq.fu_full::SimdReduceAlu                0      0.00%     56.01% # attempts to use FU when none available
system.cpu.iq.fu_full::SimdReduceCmp                0      0.00%     56.01% # attempts to use FU when none available
system.cpu.iq.fu_full::SimdFloatReduceAdd            0      0.00%     56.01% # attempts to use FU when none available
system.cpu.iq.fu_full::SimdFloatReduceCmp            0      0.00%     56.01% # attempts to use FU when none available
system.cpu.iq.fu_full::SimdAes                      0      0.00%     56.01% # attempts to use FU when none available
system.cpu.iq.fu_full::SimdAesMix                   0      0.00%     56.01% # attempts to use FU when none available
system.cpu.iq.fu_full::SimdSha1Hash                 0      0.00%     56.01% # attempts to use FU when none available
system.cpu.iq.fu_full::SimdSha1Hash2                0      0.00%     56.01% # attempts to use FU when none available
system.cpu.iq.fu_full::SimdSha256Hash               0      0.00%     56.01% # attempts to use FU when none available
system.cpu.iq.fu_full::SimdSha256Hash2              0      0.00%     56.01% # attempts to use FU when none available
system.cpu.iq.fu_full::SimdShaSigma2                0      0.00%     56.01% # attempts to use FU when none available
system.cpu.iq.fu_full::SimdShaSigma3                0      0.00%     56.01% # attempts to use FU when none available
system.cpu.iq.fu_full::SimdPredAlu                  0      0.00%     56.01% # attempts to use FU when none available
system.cpu.iq.fu_full::MemRead                1928422     33.47%     89.48% # attempts to use FU when none available
system.cpu.iq.fu_full::MemWrite                606214     10.52%    100.00% # attempts to use FU when none available
system.cpu.iq.fu_full::FloatMemRead                 0      0.00%    100.00% # attempts to use FU when none available
system.cpu.iq.fu_full::FloatMemWrite                0      0.00%    100.00% # attempts to use FU when none available
system.cpu.iq.fu_full::IprAccess                    0      0.00%    100.00% # attempts to use FU when none available
system.cpu.iq.fu_full::InstPrefetch                 0      0.00%    100.00% # attempts to use FU when none available
system.cpu.iq.int_alu_accesses              105937679                       # Number of integer alu accesses
system.cpu.iq.int_inst_queue_reads          287093520                       # Number of integer instruction queue reads
system.cpu.iq.int_inst_queue_wakeup_accesses    100119680                       # Number of integer instruction queue wakeup accesses
system.cpu.iq.int_inst_queue_writes         100546781                       # Number of integer instruction queue writes
system.cpu.iq.iqInstsAdded                  100270582                       # Number of instructions added to the IQ (excludes non-spec)
system.cpu.iq.iqInstsIssued                 100176348                       # Number of instructions issued
system.cpu.iq.iqNonSpecInstsAdded                  52                       # Number of non-speculative instructions added to the IQ
system.cpu.iq.iqSquashedInstsExamined          268582                       # Number of squashed instructions iterated over during squash; mainly for profiling
system.cpu.iq.iqSquashedInstsIssued              3380                       # Number of squashed instructions issued
system.cpu.iq.iqSquashedNonSpecRemoved              2                       # Number of squashed non-spec instructions that were removed
system.cpu.iq.iqSquashedOperandsExamined       623038                       # Number of squashed operands that are examined and possibly removed from graph
system.cpu.iq.issued_per_cycle::samples      80976108                       # Number of insts issued each cycle
system.cpu.iq.issued_per_cycle::mean         1.237110                       # Number of insts issued each cycle
system.cpu.iq.issued_per_cycle::stdev        0.888799                       # Number of insts issued each cycle
system.cpu.iq.issued_per_cycle::underflows            0      0.00%      0.00% # Number of insts issued each cycle
system.cpu.iq.issued_per_cycle::0            17101695     21.12%     21.12% # Number of insts issued each cycle
system.cpu.iq.issued_per_cycle::1            34791084     42.96%     64.08% # Number of insts issued each cycle
system.cpu.iq.issued_per_cycle::2            22204651     27.42%     91.51% # Number of insts issued each cycle
system.cpu.iq.issued_per_cycle::3             6538750      8.07%     99.58% # Number of insts issued each cycle
system.cpu.iq.issued_per_cycle::4              339928      0.42%    100.00% # Number of insts issued each cycle
system.cpu.iq.issued_per_cycle::5                   0      0.00%    100.00% # Number of insts issued each cycle
system.cpu.iq.issued_per_cycle::6                   0      0.00%    100.00% # Number of insts issued each cycle
system.cpu.iq.issued_per_cycle::7                   0      0.00%    100.00% # Number of insts issued each cycle
system.cpu.iq.issued_per_cycle::8                   0      0.00%    100.00% # Number of insts issued each cycle
system.cpu.iq.issued_per_cycle::overflows            0      0.00%    100.00% # Number of insts issued each cycle
system.cpu.iq.issued_per_cycle::min_value            0                       # Number of insts issued each cycle
system.cpu.iq.issued_per_cycle::max_value            4                       # Number of insts issued each cycle
system.cpu.iq.issued_per_cycle::total        80976108                       # Number of insts issued each cycle
system.cpu.iq.rate                           1.236752                       # Inst issue rate
system.cpu.iq.vec_alu_accesses                      0                       # Number of vector alu accesses
system.cpu.iq.vec_inst_queue_reads                  0                       # Number of vector instruction queue reads
system.cpu.iq.vec_inst_queue_wakeup_accesses            0                       # Number of vector instruction queue wakeup accesses
system.cpu.iq.vec_inst_queue_writes                 0                       # Number of vector instruction queue writes
system.cpu.memDep0.conflictingLoads          11351986                       # Number of conflicting loads.
system.cpu.memDep0.conflictingStores          4328097                       # Number of conflicting stores.
system.cpu.memDep0.insertedLoads             20713984                       # Number of loads inserted to the mem dependence unit.
system.cpu.memDep0.insertedStores            18149001                       # Number of stores inserted to the mem dependence unit.
system.cpu.misc_regfile_reads               256455236                       # number of misc regfile reads
system.cpu.misc_regfile_writes                     78                       # number of misc regfile writes
system.cpu.numCycles                         80999536                       # number of cpu cycles simulated
system.cpu.numWorkItemsCompleted                    0                       # number of work items this cpu completed
system.cpu.numWorkItemsStarted                      0                       # number of work items this cpu started
system.cpu.timesIdled                             357                       # Number of times that the entire CPU went into an idle state and unscheduled itself
system.cpu.vec_regfile_reads                       32                       # number of vector regfile reads
system.cpu.workload.numSyscalls                    10                       # Number of system calls
system.membus.snoop_filter.hit_multi_requests            7                       # Number of requests hitting in the snoop filter with multiple (>1) holders of the requested data.
system.membus.snoop_filter.hit_multi_snoops            0                       # Number of snoops hitting in the snoop filter with multiple (>1) holders of the requested data.
system.membus.snoop_filter.hit_single_requests           82                       # Number of requests hitting in the snoop filter with a single holder of the requested data.
system.membus.snoop_filter.hit_single_snoops            0                       # Number of snoops hitting in the snoop filter with a single holder of the requested data.
system.membus.snoop_filter.tot_requests           791                       # Total number of requests made to the snoop filter.
system.membus.snoop_filter.tot_snoops               0                       # Total number of snoops made to the snoop filter.
system.clk_domain.clock                          1000                       # Clock period in ticks
system.cpu.branchPred.lookups                 6006543                       # Number of BP lookups
system.cpu.branchPred.condPredicted           3833416                       # Number of conditional branches predicted
system.cpu.branchPred.condIncorrect             27997                       # Number of conditional branches incorrect
system.cpu.branchPred.BTBLookups              3902962                       # Number of BTB lookups
system.cpu.branchPred.BTBHits                 3901389                       # Number of BTB hits
system.cpu.branchPred.BTBHitPct             99.959697                       # BTB Hit Percentage
system.cpu.branchPred.RASUsed                  687423                       # Number of times the RAS was used to get a target.
system.cpu.branchPred.RASIncorrect                 68                       # Number of incorrect RAS predictions.
system.cpu.branchPred.indirectLookups             225                       # Number of indirect predictor lookups.
system.cpu.branchPred.indirectHits                 24                       # Number of indirect target hits.
system.cpu.branchPred.indirectMisses              201                       # Number of indirect misses.
system.cpu.branchPred.indirectMispredicted           70                       # Number of mispredicted indirect branches.
system.cpu.commit.commitSquashedInsts          224210                       # The number of squashed insts skipped by commit
system.cpu.commit.commitNonSpecStalls              50                       # The number of times commit has been forced to stall to communicate backwards
system.cpu.commit.branchMispredicts             27737                       # The number of times a branch was mispredicted
system.cpu.commit.numCommittedDist::samples     80926217                       # Number of insts commited each cycle
system.cpu.commit.numCommittedDist::mean     1.235719                       # Number of insts commited each cycle
system.cpu.commit.numCommittedDist::stdev     1.971141                       # Number of insts commited each cycle
system.cpu.commit.numCommittedDist::underflows            0      0.00%      0.00% # Number of insts commited each cycle
system.cpu.commit.numCommittedDist::0        31732073     39.21%     39.21% # Number of insts commited each cycle
system.cpu.commit.numCommittedDist::1        37659020     46.54%     85.75% # Number of insts commited each cycle
system.cpu.commit.numCommittedDist::2          529048      0.65%     86.40% # Number of insts commited each cycle
system.cpu.commit.numCommittedDist::3         3910009      4.83%     91.23% # Number of insts commited each cycle
system.cpu.commit.numCommittedDist::4          970859      1.20%     92.43% # Number of insts commited each cycle
system.cpu.commit.numCommittedDist::5          817863      1.01%     93.44% # Number of insts commited each cycle
system.cpu.commit.numCommittedDist::6          269253      0.33%     93.77% # Number of insts commited each cycle
system.cpu.commit.numCommittedDist::7          338114      0.42%     94.19% # Number of insts commited each cycle
system.cpu.commit.numCommittedDist::8         4699978      5.81%    100.00% # Number of insts commited each cycle
system.cpu.commit.numCommittedDist::overflows            0      0.00%    100.00% # Number of insts commited each cycle
system.cpu.commit.numCommittedDist::min_value            0                       # Number of insts commited each cycle
system.cpu.commit.numCommittedDist::max_value            8                       # Number of insts commited each cycle
system.cpu.commit.numCommittedDist::total     80926217                       # Number of insts commited each cycle
system.cpu.commit.instsCommitted            100000000                       # Number of instructions committed
system.cpu.commit.opsCommitted              100002034                       # Number of ops (including micro ops) committed
system.cpu.commit.memRefs                    38769614                       # Number of memory references committed
system.cpu.commit.loads                      20659429                       # Number of loads committed
system.cpu.commit.amos                              0                       # Number of atomic instructions committed
system.cpu.commit.membars                          20                       # Number of memory barriers committed
system.cpu.commit.branches                    5915733                       # Number of branches committed
system.cpu.commit.vector                            0                       # Number of committed Vector instructions.
system.cpu.commit.floating                          0                       # Number of committed floating point instructions.
system.cpu.commit.integer                    95453224                       # Number of committed integer instructions.
system.cpu.commit.functionCalls                683421                       # Number of function calls committed.
system.cpu.commit.committedInstType_0::No_OpClass            0      0.00%      0.00% # Class of committed instruction
system.cpu.commit.committedInstType_0::IntAlu     61232406     61.23%     61.23% # Class of committed instruction
system.cpu.commit.committedInstType_0::IntMult           10      0.00%     61.23% # Class of committed instruction
system.cpu.commit.committedInstType_0::IntDiv            0      0.00%     61.23% # Class of committed instruction
system.cpu.commit.committedInstType_0::FloatAdd            0      0.00%     61.23% # Class of committed instruction
system.cpu.commit.committedInstType_0::FloatCmp            0      0.00%     61.23% # Class of committed instruction
system.cpu.commit.committedInstType_0::FloatCvt            0      0.00%     61.23% # Class of committed instruction
system.cpu.commit.committedInstType_0::FloatMult            0      0.00%     61.23% # Class of committed instruction
system.cpu.commit.committedInstType_0::FloatMultAcc            0      0.00%     61.23% # Class of committed instruction
system.cpu.commit.committedInstType_0::FloatDiv            0      0.00%     61.23% # Class of committed instruction
system.cpu.commit.committedInstType_0::FloatMisc            0      0.00%     61.23% # Class of committed instruction
system.cpu.commit.committedInstType_0::FloatSqrt            0      0.00%     61.23% # Class of committed instruction
system.cpu.commit.committedInstType_0::SimdAdd            0      0.00%     61.23% # Class of committed instruction
system.cpu.commit.committedInstType_0::SimdAddAcc            0      0.00%     61.23% # Class of committed instruction
system.cpu.commit.committedInstType_0::SimdAlu            0      0.00%     61.23% # Class of committed instruction
system.cpu.commit.committedInstType_0::SimdCmp            0      0.00%     61.23% # Class of committed instruction
system.cpu.commit.committedInstType_0::SimdCvt            0      0.00%     61.23% # Class of committed instruction
system.cpu.commit.committedInstType_0::SimdMisc            0      0.00%     61.23% # Class of committed instruction
system.cpu.commit.committedInstType_0::SimdMult            0      0.00%     61.23% # Class of committed instruction
system.cpu.commit.committedInstType_0::SimdMultAcc            0      0.00%     61.23% # Class of committed instruction
system.cpu.commit.committedInstType_0::SimdShift            0      0.00%     61.23% # Class of committed instruction
system.cpu.commit.committedInstType_0::SimdShiftAcc            0      0.00%     61.23% # Class of committed instruction
system.cpu.commit.committedInstType_0::SimdDiv            0      0.00%     61.23% # Class of committed instruction
system.cpu.commit.committedInstType_0::SimdSqrt            0      0.00%     61.23% # Class of committed instruction
system.cpu.commit.committedInstType_0::SimdFloatAdd            0      0.00%     61.23% # Class of committed instruction
system.cpu.commit.committedInstType_0::SimdFloatAlu            0      0.00%     61.23% # Class of committed instruction
system.cpu.commit.committedInstType_0::SimdFloatCmp            0      0.00%     61.23% # Class of committed instruction
system.cpu.commit.committedInstType_0::SimdFloatCvt            0      0.00%     61.23% # Class of committed instruction
system.cpu.commit.committedInstType_0::SimdFloatDiv            0      0.00%     61.23% # Class of committed instruction
system.cpu.commit.committedInstType_0::SimdFloatMisc            4      0.00%     61.23% # Class of committed instruction
system.cpu.commit.committedInstType_0::SimdFloatMult            0      0.00%     61.23% # Class of committed instruction
system.cpu.commit.committedInstType_0::SimdFloatMultAcc            0      0.00%     61.23% # Class of committed instruction
system.cpu.commit.committedInstType_0::SimdFloatSqrt            0      0.00%     61.23% # Class of committed instruction
system.cpu.commit.committedInstType_0::SimdReduceAdd            0      0.00%     61.23% # Class of committed instruction
system.cpu.commit.committedInstType_0::SimdReduceAlu            0      0.00%     61.23% # Class of committed instruction
system.cpu.commit.committedInstType_0::SimdReduceCmp            0      0.00%     61.23% # Class of committed instruction
system.cpu.commit.committedInstType_0::SimdFloatReduceAdd            0      0.00%     61.23% # Class of committed instruction
system.cpu.commit.committedInstType_0::SimdFloatReduceCmp            0      0.00%     61.23% # Class of committed instruction
system.cpu.commit.committedInstType_0::SimdAes            0      0.00%     61.23% # Class of committed instruction
system.cpu.commit.committedInstType_0::SimdAesMix            0      0.00%     61.23% # Class of committed instruction
system.cpu.commit.committedInstType_0::SimdSha1Hash            0      0.00%     61.23% # Class of committed instruction
system.cpu.commit.committedInstType_0::SimdSha1Hash2            0      0.00%     61.23% # Class of committed instruction
system.cpu.commit.committedInstType_0::SimdSha256Hash            0      0.00%     61.23% # Class of committed instruction
system.cpu.commit.committedInstType_0::SimdSha256Hash2            0      0.00%     61.23% # Class of committed instruction
system.cpu.commit.committedInstType_0::SimdShaSigma2            0      0.00%     61.23% # Class of committed instruction
system.cpu.commit.committedInstType_0::SimdShaSigma3            0      0.00%     61.23% # Class of committed instruction
system.cpu.commit.committedInstType_0::SimdPredAlu            0      0.00%     61.23% # Class of committed instruction
system.cpu.commit.committedInstType_0::MemRead     20659429     20.66%     81.89% # Class of committed instruction
system.cpu.commit.committedInstType_0::MemWrite     18110185     18.11%    100.00% # Class of committed instruction
system.cpu.commit.committedInstType_0::FloatMemRead            0      0.00%    100.00% # Class of committed instruction
system.cpu.commit.committedInstType_0::FloatMemWrite            0      0.00%    100.00% # Class of committed instruction
system.cpu.commit.committedInstType_0::IprAccess            0      0.00%    100.00% # Class of committed instruction
system.cpu.commit.committedInstType_0::InstPrefetch            0      0.00%    100.00% # Class of committed instruction
system.cpu.commit.committedInstType_0::total    100002034                       # Class of committed instruction
system.cpu.commit.commitEligibleSamples       4699978                       # number cycles where commit BW limit reached
system.cpu.dcache.demand_hits::.cpu.data     20244050                       # number of demand (read+write) hits
system.cpu.dcache.demand_hits::total         20244050                       # number of demand (read+write) hits
system.cpu.dcache.overall_hits::.cpu.data     20244050                       # number of overall hits
system.cpu.dcache.overall_hits::total        20244050                       # number of overall hits
system.cpu.dcache.demand_misses::.cpu.data          879                       # number of demand (read+write) misses
system.cpu.dcache.demand_misses::total            879                       # number of demand (read+write) misses
system.cpu.dcache.overall_misses::.cpu.data          879                       # number of overall misses
system.cpu.dcache.overall_misses::total           879                       # number of overall misses
system.cpu.dcache.demand_miss_latency::.cpu.data     46423249                       # number of demand (read+write) miss cycles
system.cpu.dcache.demand_miss_latency::total     46423249                       # number of demand (read+write) miss cycles
system.cpu.dcache.overall_miss_latency::.cpu.data     46423249                       # number of overall miss cycles
system.cpu.dcache.overall_miss_latency::total     46423249                       # number of overall miss cycles
system.cpu.dcache.demand_accesses::.cpu.data     20244929                       # number of demand (read+write) accesses
system.cpu.dcache.demand_accesses::total     20244929                       # number of demand (read+write) accesses
system.cpu.dcache.overall_accesses::.cpu.data     20244929                       # number of overall (read+write) accesses
system.cpu.dcache.overall_accesses::total     20244929                       # number of overall (read+write) accesses
system.cpu.dcache.demand_miss_rate::.cpu.data     0.000043                       # miss rate for demand accesses
system.cpu.dcache.demand_miss_rate::total     0.000043                       # miss rate for demand accesses
system.cpu.dcache.overall_miss_rate::.cpu.data     0.000043                       # miss rate for overall accesses
system.cpu.dcache.overall_miss_rate::total     0.000043                       # miss rate for overall accesses
system.cpu.dcache.demand_avg_miss_latency::.cpu.data 52813.707622                       # average overall miss latency
system.cpu.dcache.demand_avg_miss_latency::total 52813.707622                       # average overall miss latency
system.cpu.dcache.overall_avg_miss_latency::.cpu.data 52813.707622                       # average overall miss latency
system.cpu.dcache.overall_avg_miss_latency::total 52813.707622                       # average overall miss latency
system.cpu.dcache.blocked_cycles::no_mshrs          126                       # number of cycles access was blocked
system.cpu.dcache.blocked_cycles::no_targets         2023                       # number of cycles access was blocked
system.cpu.dcache.blocked::no_mshrs                 4                       # number of cycles access was blocked
system.cpu.dcache.blocked::no_targets              45                       # number of cycles access was blocked
system.cpu.dcache.avg_blocked_cycles::no_mshrs    31.500000                       # average number of cycles each access was blocked
system.cpu.dcache.avg_blocked_cycles::no_targets    44.955556                       # average number of cycles each access was blocked
system.cpu.dcache.writebacks::.writebacks            3                       # number of writebacks
system.cpu.dcache.writebacks::total                 3                       # number of writebacks
system.cpu.dcache.demand_mshr_hits::.cpu.data          626                       # number of demand (read+write) MSHR hits
system.cpu.dcache.demand_mshr_hits::total          626                       # number of demand (read+write) MSHR hits
system.cpu.dcache.overall_mshr_hits::.cpu.data          626                       # number of overall MSHR hits
system.cpu.dcache.overall_mshr_hits::total          626                       # number of overall MSHR hits
system.cpu.dcache.demand_mshr_misses::.cpu.data          253                       # number of demand (read+write) MSHR misses
system.cpu.dcache.demand_mshr_misses::total          253                       # number of demand (read+write) MSHR misses
system.cpu.dcache.overall_mshr_misses::.cpu.data          253                       # number of overall MSHR misses
system.cpu.dcache.overall_mshr_misses::total          253                       # number of overall MSHR misses
system.cpu.dcache.demand_mshr_miss_latency::.cpu.data     16243499                       # number of demand (read+write) MSHR miss cycles
system.cpu.dcache.demand_mshr_miss_latency::total     16243499                       # number of demand (read+write) MSHR miss cycles
system.cpu.dcache.overall_mshr_miss_latency::.cpu.data     16243499                       # number of overall MSHR miss cycles
system.cpu.dcache.overall_mshr_miss_latency::total     16243499                       # number of overall MSHR miss cycles
system.cpu.dcache.demand_mshr_miss_rate::.cpu.data     0.000012                       # mshr miss rate for demand accesses
system.cpu.dcache.demand_mshr_miss_rate::total     0.000012                       # mshr miss rate for demand accesses
system.cpu.dcache.overall_mshr_miss_rate::.cpu.data     0.000012                       # mshr miss rate for overall accesses
system.cpu.dcache.overall_mshr_miss_rate::total     0.000012                       # mshr miss rate for overall accesses
system.cpu.dcache.demand_avg_mshr_miss_latency::.cpu.data 64203.553360                       # average overall mshr miss latency
system.cpu.dcache.demand_avg_mshr_miss_latency::total 64203.553360                       # average overall mshr miss latency
system.cpu.dcache.overall_avg_mshr_miss_latency::.cpu.data 64203.553360                       # average overall mshr miss latency
system.cpu.dcache.overall_avg_mshr_miss_latency::total 64203.553360                       # average overall mshr miss latency
system.cpu.dcache.replacements                      3                       # number of replacements
system.cpu.dcache.ReadReq_hits::.cpu.data     11848168                       # number of ReadReq hits
system.cpu.dcache.ReadReq_hits::total        11848168                       # number of ReadReq hits
system.cpu.dcache.ReadReq_misses::.cpu.data          296                       # number of ReadReq misses
system.cpu.dcache.ReadReq_misses::total           296                       # number of ReadReq misses
system.cpu.dcache.ReadReq_miss_latency::.cpu.data     16698250                       # number of ReadReq miss cycles
system.cpu.dcache.ReadReq_miss_latency::total     16698250                       # number of ReadReq miss cycles
system.cpu.dcache.ReadReq_accesses::.cpu.data     11848464                       # number of ReadReq accesses(hits+misses)
system.cpu.dcache.ReadReq_accesses::total     11848464                       # number of ReadReq accesses(hits+misses)
system.cpu.dcache.ReadReq_miss_rate::.cpu.data     0.000025                       # miss rate for ReadReq accesses
system.cpu.dcache.ReadReq_miss_rate::total     0.000025                       # miss rate for ReadReq accesses
system.cpu.dcache.ReadReq_avg_miss_latency::.cpu.data 56413.006757                       # average ReadReq miss latency
system.cpu.dcache.ReadReq_avg_miss_latency::total 56413.006757                       # average ReadReq miss latency
system.cpu.dcache.ReadReq_mshr_hits::.cpu.data          163                       # number of ReadReq MSHR hits
system.cpu.dcache.ReadReq_mshr_hits::total          163                       # number of ReadReq MSHR hits
system.cpu.dcache.ReadReq_mshr_misses::.cpu.data          133                       # number of ReadReq MSHR misses
system.cpu.dcache.ReadReq_mshr_misses::total          133                       # number of ReadReq MSHR misses
system.cpu.dcache.ReadReq_mshr_miss_latency::.cpu.data      8681500                       # number of ReadReq MSHR miss cycles
system.cpu.dcache.ReadReq_mshr_miss_latency::total      8681500                       # number of ReadReq MSHR miss cycles
system.cpu.dcache.ReadReq_mshr_miss_rate::.cpu.data     0.000011                       # mshr miss rate for ReadReq accesses
system.cpu.dcache.ReadReq_mshr_miss_rate::total     0.000011                       # mshr miss rate for ReadReq accesses
system.cpu.dcache.ReadReq_avg_mshr_miss_latency::.cpu.data 65274.436090                       # average ReadReq mshr miss latency
system.cpu.dcache.ReadReq_avg_mshr_miss_latency::total 65274.436090                       # average ReadReq mshr miss latency
system.cpu.dcache.WriteReq_hits::.cpu.data      8395882                       # number of WriteReq hits
system.cpu.dcache.WriteReq_hits::total        8395882                       # number of WriteReq hits
system.cpu.dcache.WriteReq_misses::.cpu.data          583                       # number of WriteReq misses
system.cpu.dcache.WriteReq_misses::total          583                       # number of WriteReq misses
system.cpu.dcache.WriteReq_miss_latency::.cpu.data     29724999                       # number of WriteReq miss cycles
system.cpu.dcache.WriteReq_miss_latency::total     29724999                       # number of WriteReq miss cycles
system.cpu.dcache.WriteReq_accesses::.cpu.data      8396465                       # number of WriteReq accesses(hits+misses)
system.cpu.dcache.WriteReq_accesses::total      8396465                       # number of WriteReq accesses(hits+misses)
system.cpu.dcache.WriteReq_miss_rate::.cpu.data     0.000069                       # miss rate for WriteReq accesses
system.cpu.dcache.WriteReq_miss_rate::total     0.000069                       # miss rate for WriteReq accesses
system.cpu.dcache.WriteReq_avg_miss_latency::.cpu.data 50986.276158                       # average WriteReq miss latency
system.cpu.dcache.WriteReq_avg_miss_latency::total 50986.276158                       # average WriteReq miss latency
system.cpu.dcache.WriteReq_mshr_hits::.cpu.data          463                       # number of WriteReq MSHR hits
system.cpu.dcache.WriteReq_mshr_hits::total          463                       # number of WriteReq MSHR hits
system.cpu.dcache.WriteReq_mshr_misses::.cpu.data          120                       # number of WriteReq MSHR misses
system.cpu.dcache.WriteReq_mshr_misses::total          120                       # number of WriteReq MSHR misses
system.cpu.dcache.WriteReq_mshr_miss_latency::.cpu.data      7561999                       # number of WriteReq MSHR miss cycles
system.cpu.dcache.WriteReq_mshr_miss_latency::total      7561999                       # number of WriteReq MSHR miss cycles
system.cpu.dcache.WriteReq_mshr_miss_rate::.cpu.data     0.000014                       # mshr miss rate for WriteReq accesses
system.cpu.dcache.WriteReq_mshr_miss_rate::total     0.000014                       # mshr miss rate for WriteReq accesses
system.cpu.dcache.WriteReq_avg_mshr_miss_latency::.cpu.data 63016.658333                       # average WriteReq mshr miss latency
system.cpu.dcache.WriteReq_avg_mshr_miss_latency::total 63016.658333                       # average WriteReq mshr miss latency
system.cpu.dcache.LoadLockedReq_hits::.cpu.data           17                       # number of LoadLockedReq hits
system.cpu.dcache.LoadLockedReq_hits::total           17                       # number of LoadLockedReq hits
system.cpu.dcache.LoadLockedReq_misses::.cpu.data            2                       # number of LoadLockedReq misses
system.cpu.dcache.LoadLockedReq_misses::total            2                       # number of LoadLockedReq misses
system.cpu.dcache.LoadLockedReq_miss_latency::.cpu.data       115000                       # number of LoadLockedReq miss cycles
system.cpu.dcache.LoadLockedReq_miss_latency::total       115000                       # number of LoadLockedReq miss cycles
system.cpu.dcache.LoadLockedReq_accesses::.cpu.data           19                       # number of LoadLockedReq accesses(hits+misses)
system.cpu.dcache.LoadLockedReq_accesses::total           19                       # number of LoadLockedReq accesses(hits+misses)
system.cpu.dcache.LoadLockedReq_miss_rate::.cpu.data     0.105263                       # miss rate for LoadLockedReq accesses
system.cpu.dcache.LoadLockedReq_miss_rate::total     0.105263                       # miss rate for LoadLockedReq accesses
system.cpu.dcache.LoadLockedReq_avg_miss_latency::.cpu.data        57500                       # average LoadLockedReq miss latency
system.cpu.dcache.LoadLockedReq_avg_miss_latency::total        57500                       # average LoadLockedReq miss latency
system.cpu.dcache.LoadLockedReq_mshr_hits::.cpu.data            2                       # number of LoadLockedReq MSHR hits
system.cpu.dcache.LoadLockedReq_mshr_hits::total            2                       # number of LoadLockedReq MSHR hits
system.cpu.dcache.StoreCondReq_hits::.cpu.data           19                       # number of StoreCondReq hits
system.cpu.dcache.StoreCondReq_hits::total           19                       # number of StoreCondReq hits
system.cpu.dcache.StoreCondReq_accesses::.cpu.data           19                       # number of StoreCondReq accesses(hits+misses)
system.cpu.dcache.StoreCondReq_accesses::total           19                       # number of StoreCondReq accesses(hits+misses)
system.cpu.dcache.power_state.pwrStateResidencyTicks::UNDEFINED  50624709375                       # Cumulative time (in ticks) in various power states
system.cpu.dcache.tags.tagsinuse           249.911758                       # Cycle average of tags in use
system.cpu.dcache.tags.total_refs            20244339                       # Total number of references to valid blocks.
system.cpu.dcache.tags.sampled_refs               253                       # Sample count of references to valid blocks.
system.cpu.dcache.tags.avg_refs          80017.150198                       # Average number of references to valid blocks.
system.cpu.dcache.tags.warmup_cycle            149000                       # Cycle when the warmup percentage was hit.
system.cpu.dcache.tags.occ_blocks::.cpu.data   249.911758                       # Average occupied blocks per requestor
system.cpu.dcache.tags.occ_percent::.cpu.data     0.488109                       # Average percentage of cache occupancy
system.cpu.dcache.tags.occ_percent::total     0.488109                       # Average percentage of cache occupancy
system.cpu.dcache.tags.occ_task_id_blocks::1024          250                       # Occupied blocks per task id
system.cpu.dcache.tags.age_task_id_blocks_1024::4          250                       # Occupied blocks per task id
system.cpu.dcache.tags.occ_task_id_percent::1024     0.488281                       # Percentage of cache occupancy per task id
system.cpu.dcache.tags.tag_accesses          80980121                       # Number of tag accesses
system.cpu.dcache.tags.data_accesses         80980121                       # Number of data accesses
system.cpu.dcache.tags.power_state.pwrStateResidencyTicks::UNDEFINED  50624709375                       # Cumulative time (in ticks) in various power states
system.cpu.decode.idleCycles                  6381494                       # Number of cycles decode is idle
system.cpu.decode.blockedCycles              38235480                       # Number of cycles decode is blocked
system.cpu.decode.runCycles                  25983270                       # Number of cycles decode is running
system.cpu.decode.unblockCycles              10341448                       # Number of cycles decode is unblocking
system.cpu.decode.squashCycles                  34416                       # Number of cycles decode is squashing
system.cpu.decode.branchResolved              3871001                       # Number of times decode resolved a  branch
system.cpu.decode.branchMispred                   267                       # Number of times decode detected a branch misprediction
system.cpu.decode.decodedInsts              100434967                       # Number of instructions handled by decode
system.cpu.decode.squashedInsts                 96072                       # Number of squashed instructions handled by decode
system.cpu.dtb.instHits                             0                       # ITB inst hits
system.cpu.dtb.instMisses                           0                       # ITB inst misses
system.cpu.dtb.readHits                             0                       # DTB read hits
system.cpu.dtb.readMisses                           0                       # DTB read misses
system.cpu.dtb.writeHits                            0                       # DTB write hits
system.cpu.dtb.writeMisses                          0                       # DTB write misses
system.cpu.dtb.inserts                              0                       # Number of times an entry is inserted into the TLB
system.cpu.dtb.flushTlb                             0                       # Number of times complete TLB was flushed
system.cpu.dtb.flushTlbMva                          0                       # Number of times TLB was flushed by MVA
system.cpu.dtb.flushTlbMvaAsid                      0                       # Number of times TLB was flushed by MVA & ASID
system.cpu.dtb.flushTlbAsid                         0                       # Number of times TLB was flushed by ASID
system.cpu.dtb.flushedEntries                       0                       # Number of entries that have been flushed from TLB
system.cpu.dtb.alignFaults                          0                       # Number of TLB faults due to alignment restrictions
system.cpu.dtb.prefetchFaults                       0                       # Number of TLB faults due to prefetch
system.cpu.dtb.domainFaults                         0                       # Number of TLB faults due to domain restrictions
system.cpu.dtb.permsFaults                          0                       # Number of TLB faults due to permissions restrictions
system.cpu.dtb.readAccesses                         0                       # DTB read accesses
system.cpu.dtb.writeAccesses                        0                       # DTB write accesses
system.cpu.dtb.instAccesses                         0                       # ITB inst accesses
system.cpu.dtb.hits                                 0                       # Total TLB (inst and data) hits
system.cpu.dtb.misses                               0                       # Total TLB (inst and data) misses
system.cpu.dtb.accesses                             0                       # Total TLB (inst and data) accesses
system.cpu.dtb.stage2_mmu.stage2_tlb.instHits            0                       # ITB inst hits
system.cpu.dtb.stage2_mmu.stage2_tlb.instMisses            0                       # ITB inst misses
system.cpu.dtb.stage2_mmu.stage2_tlb.readHits            0                       # DTB read hits
system.cpu.dtb.stage2_mmu.stage2_tlb.readMisses            0                       # DTB read misses
system.cpu.dtb.stage2_mmu.stage2_tlb.writeHits            0                       # DTB write hits
system.cpu.dtb.stage2_mmu.stage2_tlb.writeMisses            0                       # DTB write misses
system.cpu.dtb.stage2_mmu.stage2_tlb.inserts            0                       # Number of times an entry is inserted into the TLB
system.cpu.dtb.stage2_mmu.stage2_tlb.flushTlb            0                       # Number of times complete TLB was flushed
system.cpu.dtb.stage2_mmu.stage2_tlb.flushTlbMva            0                       # Number of times TLB was flushed by MVA
system.cpu.dtb.stage2_mmu.stage2_tlb.flushTlbMvaAsid            0                       # Number of times TLB was flushed by MVA & ASID
system.cpu.dtb.stage2_mmu.stage2_tlb.flushTlbAsid            0                       # Number of times TLB was flushed by ASID
system.cpu.dtb.stage2_mmu.stage2_tlb.flushedEntries            0                       # Number of entries that have been flushed from TLB
system.cpu.dtb.stage2_mmu.stage2_tlb.alignFaults            0                       # Number of TLB faults due to alignment restrictions
system.cpu.dtb.stage2_mmu.stage2_tlb.prefetchFaults            0                       # Number of TLB faults due to prefetch
system.cpu.dtb.stage2_mmu.stage2_tlb.domainFaults            0                       # Number of TLB faults due to domain restrictions
system.cpu.dtb.stage2_mmu.stage2_tlb.permsFaults            0                       # Number of TLB faults due to permissions restrictions
system.cpu.dtb.stage2_mmu.stage2_tlb.readAccesses            0                       # DTB read accesses
system.cpu.dtb.stage2_mmu.stage2_tlb.writeAccesses            0                       # DTB write accesses
system.cpu.dtb.stage2_mmu.stage2_tlb.instAccesses            0                       # ITB inst accesses
system.cpu.dtb.stage2_mmu.stage2_tlb.hits            0                       # Total TLB (inst and data) hits
system.cpu.dtb.stage2_mmu.stage2_tlb.misses            0                       # Total TLB (inst and data) misses
system.cpu.dtb.stage2_mmu.stage2_tlb.accesses            0                       # Total TLB (inst and data) accesses
system.cpu.dtb.stage2_mmu.stage2_tlb.walker.walks            0                       # Table walker walks requested
system.cpu.dtb.stage2_mmu.stage2_tlb.walker.requestOrigin_Requested::Data            0                       # Table walker requests started/completed, data/inst
system.cpu.dtb.stage2_mmu.stage2_tlb.walker.requestOrigin_Requested::Inst            0                       # Table walker requests started/completed, data/inst
system.cpu.dtb.stage2_mmu.stage2_tlb.walker.requestOrigin_Requested::total            0                       # Table walker requests started/completed, data/inst
system.cpu.dtb.stage2_mmu.stage2_tlb.walker.requestOrigin_Completed::Data            0                       # Table walker requests started/completed, data/inst
system.cpu.dtb.stage2_mmu.stage2_tlb.walker.requestOrigin_Completed::Inst            0                       # Table walker requests started/completed, data/inst
system.cpu.dtb.stage2_mmu.stage2_tlb.walker.requestOrigin_Completed::total            0                       # Table walker requests started/completed, data/inst
system.cpu.dtb.stage2_mmu.stage2_tlb.walker.requestOrigin::total            0                       # Table walker requests started/completed, data/inst
system.cpu.dtb.stage2_mmu.stage2_tlb.walker.power_state.pwrStateResidencyTicks::UNDEFINED  50624709375                       # Cumulative time (in ticks) in various power states
system.cpu.dtb.walker.walks                         0                       # Table walker walks requested
system.cpu.dtb.walker.requestOrigin_Requested::Data            0                       # Table walker requests started/completed, data/inst
system.cpu.dtb.walker.requestOrigin_Requested::Inst            0                       # Table walker requests started/completed, data/inst
system.cpu.dtb.walker.requestOrigin_Requested::total            0                       # Table walker requests started/completed, data/inst
system.cpu.dtb.walker.requestOrigin_Completed::Data            0                       # Table walker requests started/completed, data/inst
system.cpu.dtb.walker.requestOrigin_Completed::Inst            0                       # Table walker requests started/completed, data/inst
system.cpu.dtb.walker.requestOrigin_Completed::total            0                       # Table walker requests started/completed, data/inst
system.cpu.dtb.walker.requestOrigin::total            0                       # Table walker requests started/completed, data/inst
system.cpu.dtb.walker.power_state.pwrStateResidencyTicks::UNDEFINED  50624709375                       # Cumulative time (in ticks) in various power states
system.cpu.dtb_walker_cache.blocked_cycles::no_mshrs            0                       # number of cycles access was blocked
system.cpu.dtb_walker_cache.blocked_cycles::no_targets            0                       # number of cycles access was blocked
system.cpu.dtb_walker_cache.blocked::no_mshrs            0                       # number of cycles access was blocked
system.cpu.dtb_walker_cache.blocked::no_targets            0                       # number of cycles access was blocked
system.cpu.dtb_walker_cache.avg_blocked_cycles::no_mshrs          nan                       # average number of cycles each access was blocked
system.cpu.dtb_walker_cache.avg_blocked_cycles::no_targets          nan                       # average number of cycles each access was blocked
system.cpu.dtb_walker_cache.replacements            0                       # number of replacements
system.cpu.dtb_walker_cache.power_state.pwrStateResidencyTicks::UNDEFINED  50624709375                       # Cumulative time (in ticks) in various power states
system.cpu.dtb_walker_cache.tags.tagsinuse            0                       # Cycle average of tags in use
system.cpu.dtb_walker_cache.tags.total_refs            0                       # Total number of references to valid blocks.
system.cpu.dtb_walker_cache.tags.sampled_refs            0                       # Sample count of references to valid blocks.
system.cpu.dtb_walker_cache.tags.avg_refs          nan                       # Average number of references to valid blocks.
system.cpu.dtb_walker_cache.tags.warmup_cycle            0                       # Cycle when the warmup percentage was hit.
system.cpu.dtb_walker_cache.tags.tag_accesses            0                       # Number of tag accesses
system.cpu.dtb_walker_cache.tags.data_accesses            0                       # Number of data accesses
system.cpu.dtb_walker_cache.tags.power_state.pwrStateResidencyTicks::UNDEFINED  50624709375                       # Cumulative time (in ticks) in various power states
system.cpu.fetch.icacheStallCycles              44172                       # Number of cycles fetch is stalled on an Icache miss
system.cpu.fetch.insts                      101161046                       # Number of instructions fetch has processed
system.cpu.fetch.branches                     6006543                       # Number of branches that fetch encountered
system.cpu.fetch.predictedBranches            4588836                       # Number of branches that fetch has predicted taken
system.cpu.fetch.cycles                      80896625                       # Number of cycles fetch has run and was not squashing or blocked
system.cpu.fetch.squashCycles                   69362                       # Number of cycles fetch has spent squashing
system.cpu.fetch.miscStallCycles                  293                       # Number of cycles fetch has spent waiting on interrupts,or bad addresses, or out of MSHRs
system.cpu.fetch.pendingTrapStallCycles            80                       # Number of stall cycles due to pending traps
system.cpu.fetch.icacheWaitRetryStallCycles          257                       # Number of stall cycles due to full MSHR
system.cpu.fetch.cacheLines                  28358488                       # Number of cache lines fetched
system.cpu.fetch.icacheSquashes                   291                       # Number of outstanding Icache misses that were squashed
system.cpu.fetch.nisnDist::samples           80976108                       # Number of instructions fetched each cycle (Total)
system.cpu.fetch.nisnDist::mean              1.249316                       # Number of instructions fetched each cycle (Total)
system.cpu.fetch.nisnDist::stdev             1.231363                       # Number of instructions fetched each cycle (Total)
system.cpu.fetch.nisnDist::underflows               0      0.00%      0.00% # Number of instructions fetched each cycle (Total)
system.cpu.fetch.nisnDist::0                 30776866     38.01%     38.01% # Number of instructions fetched each cycle (Total)
system.cpu.fetch.nisnDist::1                 22269427     27.50%     65.51% # Number of instructions fetched each cycle (Total)
system.cpu.fetch.nisnDist::2                  4894135      6.04%     71.55% # Number of instructions fetched each cycle (Total)
system.cpu.fetch.nisnDist::3                 23035680     28.45%    100.00% # Number of instructions fetched each cycle (Total)
system.cpu.fetch.nisnDist::overflows                0      0.00%    100.00% # Number of instructions fetched each cycle (Total)
system.cpu.fetch.nisnDist::min_value                0                       # Number of instructions fetched each cycle (Total)
system.cpu.fetch.nisnDist::max_value                3                       # Number of instructions fetched each cycle (Total)
system.cpu.fetch.nisnDist::total             80976108                       # Number of instructions fetched each cycle (Total)
system.cpu.fetch.branchRate                  0.074155                       # Number of branch fetches per cycle
system.cpu.fetch.rate                        1.248909                       # Number of inst fetches per cycle
system.cpu.icache.demand_hits::.cpu.inst     28357909                       # number of demand (read+write) hits
system.cpu.icache.demand_hits::total         28357909                       # number of demand (read+write) hits
system.cpu.icache.overall_hits::.cpu.inst     28357909                       # number of overall hits
system.cpu.icache.overall_hits::total        28357909                       # number of overall hits
system.cpu.icache.demand_misses::.cpu.inst          574                       # number of demand (read+write) misses
system.cpu.icache.demand_misses::total            574                       # number of demand (read+write) misses
system.cpu.icache.overall_misses::.cpu.inst          574                       # number of overall misses
system.cpu.icache.overall_misses::total           574                       # number of overall misses
system.cpu.icache.demand_miss_latency::.cpu.inst     32150871                       # number of demand (read+write) miss cycles
system.cpu.icache.demand_miss_latency::total     32150871                       # number of demand (read+write) miss cycles
system.cpu.icache.overall_miss_latency::.cpu.inst     32150871                       # number of overall miss cycles
system.cpu.icache.overall_miss_latency::total     32150871                       # number of overall miss cycles
system.cpu.icache.demand_accesses::.cpu.inst     28358483                       # number of demand (read+write) accesses
system.cpu.icache.demand_accesses::total     28358483                       # number of demand (read+write) accesses
system.cpu.icache.overall_accesses::.cpu.inst     28358483                       # number of overall (read+write) accesses
system.cpu.icache.overall_accesses::total     28358483                       # number of overall (read+write) accesses
system.cpu.icache.demand_miss_rate::.cpu.inst     0.000020                       # miss rate for demand accesses
system.cpu.icache.demand_miss_rate::total     0.000020                       # miss rate for demand accesses
system.cpu.icache.overall_miss_rate::.cpu.inst     0.000020                       # miss rate for overall accesses
system.cpu.icache.overall_miss_rate::total     0.000020                       # miss rate for overall accesses
system.cpu.icache.demand_avg_miss_latency::.cpu.inst 56011.970383                       # average overall miss latency
system.cpu.icache.demand_avg_miss_latency::total 56011.970383                       # average overall miss latency
system.cpu.icache.overall_avg_miss_latency::.cpu.inst 56011.970383                       # average overall miss latency
system.cpu.icache.overall_avg_miss_latency::total 56011.970383                       # average overall miss latency
system.cpu.icache.blocked_cycles::no_mshrs         8711                       # number of cycles access was blocked
system.cpu.icache.blocked_cycles::no_targets            0                       # number of cycles access was blocked
system.cpu.icache.blocked::no_mshrs               117                       # number of cycles access was blocked
system.cpu.icache.blocked::no_targets               0                       # number of cycles access was blocked
system.cpu.icache.avg_blocked_cycles::no_mshrs    74.452991                       # average number of cycles each access was blocked
system.cpu.icache.avg_blocked_cycles::no_targets          nan                       # average number of cycles each access was blocked
system.cpu.icache.writebacks::.writebacks           52                       # number of writebacks
system.cpu.icache.writebacks::total                52                       # number of writebacks
system.cpu.icache.demand_mshr_hits::.cpu.inst           91                       # number of demand (read+write) MSHR hits
system.cpu.icache.demand_mshr_hits::total           91                       # number of demand (read+write) MSHR hits
system.cpu.icache.overall_mshr_hits::.cpu.inst           91                       # number of overall MSHR hits
system.cpu.icache.overall_mshr_hits::total           91                       # number of overall MSHR hits
system.cpu.icache.demand_mshr_misses::.cpu.inst          483                       # number of demand (read+write) MSHR misses
system.cpu.icache.demand_mshr_misses::total          483                       # number of demand (read+write) MSHR misses
system.cpu.icache.overall_mshr_misses::.cpu.inst          483                       # number of overall MSHR misses
system.cpu.icache.overall_mshr_misses::total          483                       # number of overall MSHR misses
system.cpu.icache.demand_mshr_miss_latency::.cpu.inst     28430622                       # number of demand (read+write) MSHR miss cycles
system.cpu.icache.demand_mshr_miss_latency::total     28430622                       # number of demand (read+write) MSHR miss cycles
system.cpu.icache.overall_mshr_miss_latency::.cpu.inst     28430622                       # number of overall MSHR miss cycles
system.cpu.icache.overall_mshr_miss_latency::total     28430622                       # number of overall MSHR miss cycles
system.cpu.icache.demand_mshr_miss_rate::.cpu.inst     0.000017                       # mshr miss rate for demand accesses
system.cpu.icache.demand_mshr_miss_rate::total     0.000017                       # mshr miss rate for demand accesses
system.cpu.icache.overall_mshr_miss_rate::.cpu.inst     0.000017                       # mshr miss rate for overall accesses
system.cpu.icache.overall_mshr_miss_rate::total     0.000017                       # mshr miss rate for overall accesses
system.cpu.icache.demand_avg_mshr_miss_latency::.cpu.inst 58862.571429                       # average overall mshr miss latency
system.cpu.icache.demand_avg_mshr_miss_latency::total 58862.571429                       # average overall mshr miss latency
system.cpu.icache.overall_avg_mshr_miss_latency::.cpu.inst 58862.571429                       # average overall mshr miss latency
system.cpu.icache.overall_avg_mshr_miss_latency::total 58862.571429                       # average overall mshr miss latency
system.cpu.icache.replacements                     52                       # number of replacements
system.cpu.icache.ReadReq_hits::.cpu.inst     28357909                       # number of ReadReq hits
system.cpu.icache.ReadReq_hits::total        28357909                       # number of ReadReq hits
system.cpu.icache.ReadReq_misses::.cpu.inst          574                       # number of ReadReq misses
system.cpu.icache.ReadReq_misses::total           574                       # number of ReadReq misses
system.cpu.icache.ReadReq_miss_latency::.cpu.inst     32150871                       # number of ReadReq miss cycles
system.cpu.icache.ReadReq_miss_latency::total     32150871                       # number of ReadReq miss cycles
system.cpu.icache.ReadReq_accesses::.cpu.inst     28358483                       # number of ReadReq accesses(hits+misses)
system.cpu.icache.ReadReq_accesses::total     28358483                       # number of ReadReq accesses(hits+misses)
system.cpu.icache.ReadReq_miss_rate::.cpu.inst     0.000020                       # miss rate for ReadReq accesses
system.cpu.icache.ReadReq_miss_rate::total     0.000020                       # miss rate for ReadReq accesses
system.cpu.icache.ReadReq_avg_miss_latency::.cpu.inst 56011.970383                       # average ReadReq miss latency
system.cpu.icache.ReadReq_avg_miss_latency::total 56011.970383                       # average ReadReq miss latency
system.cpu.icache.ReadReq_mshr_hits::.cpu.inst           91                       # number of ReadReq MSHR hits
system.cpu.icache.ReadReq_mshr_hits::total           91                       # number of ReadReq MSHR hits
system.cpu.icache.ReadReq_mshr_misses::.cpu.inst          483                       # number of ReadReq MSHR misses
system.cpu.icache.ReadReq_mshr_misses::total          483                       # number of ReadReq MSHR misses
system.cpu.icache.ReadReq_mshr_miss_latency::.cpu.inst     28430622                       # number of ReadReq MSHR miss cycles
system.cpu.icache.ReadReq_mshr_miss_latency::total     28430622                       # number of ReadReq MSHR miss cycles
system.cpu.icache.ReadReq_mshr_miss_rate::.cpu.inst     0.000017                       # mshr miss rate for ReadReq accesses
system.cpu.icache.ReadReq_mshr_miss_rate::total     0.000017                       # mshr miss rate for ReadReq accesses
system.cpu.icache.ReadReq_avg_mshr_miss_latency::.cpu.inst 58862.571429                       # average ReadReq mshr miss latency
system.cpu.icache.ReadReq_avg_mshr_miss_latency::total 58862.571429                       # average ReadReq mshr miss latency
system.cpu.icache.power_state.pwrStateResidencyTicks::UNDEFINED  50624709375                       # Cumulative time (in ticks) in various power states
system.cpu.icache.tags.tagsinuse           430.779718                       # Cycle average of tags in use
system.cpu.icache.tags.total_refs            28358392                       # Total number of references to valid blocks.
system.cpu.icache.tags.sampled_refs               483                       # Sample count of references to valid blocks.
system.cpu.icache.tags.avg_refs          58713.026915                       # Average number of references to valid blocks.
system.cpu.icache.tags.warmup_cycle             77000                       # Cycle when the warmup percentage was hit.
system.cpu.icache.tags.occ_blocks::.cpu.inst   430.779718                       # Average occupied blocks per requestor
system.cpu.icache.tags.occ_percent::.cpu.inst     0.841367                       # Average percentage of cache occupancy
system.cpu.icache.tags.occ_percent::total     0.841367                       # Average percentage of cache occupancy
system.cpu.icache.tags.occ_task_id_blocks::1024          431                       # Occupied blocks per task id
system.cpu.icache.tags.age_task_id_blocks_1024::4          431                       # Occupied blocks per task id
system.cpu.icache.tags.occ_task_id_percent::1024     0.841797                       # Percentage of cache occupancy per task id
system.cpu.icache.tags.tag_accesses         113434415                       # Number of tag accesses
system.cpu.icache.tags.data_accesses        113434415                       # Number of data accesses
system.cpu.icache.tags.power_state.pwrStateResidencyTicks::UNDEFINED  50624709375                       # Cumulative time (in ticks) in various power states
system.cpu.itb.instHits                             0                       # ITB inst hits
system.cpu.itb.instMisses                           0                       # ITB inst misses
system.cpu.itb.readHits                             0                       # DTB read hits
system.cpu.itb.readMisses                           0                       # DTB read misses
system.cpu.itb.writeHits                            0                       # DTB write hits
system.cpu.itb.writeMisses                          0                       # DTB write misses
system.cpu.itb.inserts                              0                       # Number of times an entry is inserted into the TLB
system.cpu.itb.flushTlb                             0                       # Number of times complete TLB was flushed
system.cpu.itb.flushTlbMva                          0                       # Number of times TLB was flushed by MVA
system.cpu.itb.flushTlbMvaAsid                      0                       # Number of times TLB was flushed by MVA & ASID
system.cpu.itb.flushTlbAsid                         0                       # Number of times TLB was flushed by ASID
system.cpu.itb.flushedEntries                       0                       # Number of entries that have been flushed from TLB
system.cpu.itb.alignFaults                          0                       # Number of TLB faults due to alignment restrictions
system.cpu.itb.prefetchFaults                       0                       # Number of TLB faults due to prefetch
system.cpu.itb.domainFaults                         0                       # Number of TLB faults due to domain restrictions
system.cpu.itb.permsFaults                          0                       # Number of TLB faults due to permissions restrictions
system.cpu.itb.readAccesses                         0                       # DTB read accesses
system.cpu.itb.writeAccesses                        0                       # DTB write accesses
system.cpu.itb.instAccesses                         0                       # ITB inst accesses
system.cpu.itb.hits                                 0                       # Total TLB (inst and data) hits
system.cpu.itb.misses                               0                       # Total TLB (inst and data) misses
system.cpu.itb.accesses                             0                       # Total TLB (inst and data) accesses
system.cpu.itb.stage2_mmu.stage2_tlb.instHits            0                       # ITB inst hits
system.cpu.itb.stage2_mmu.stage2_tlb.instMisses            0                       # ITB inst misses
system.cpu.itb.stage2_mmu.stage2_tlb.readHits            0                       # DTB read hits
system.cpu.itb.stage2_mmu.stage2_tlb.readMisses            0                       # DTB read misses
system.cpu.itb.stage2_mmu.stage2_tlb.writeHits            0                       # DTB write hits
system.cpu.itb.stage2_mmu.stage2_tlb.writeMisses            0                       # DTB write misses
system.cpu.itb.stage2_mmu.stage2_tlb.inserts            0                       # Number of times an entry is inserted into the TLB
system.cpu.itb.stage2_mmu.stage2_tlb.flushTlb            0                       # Number of times complete TLB was flushed
system.cpu.itb.stage2_mmu.stage2_tlb.flushTlbMva            0                       # Number of times TLB was flushed by MVA
system.cpu.itb.stage2_mmu.stage2_tlb.flushTlbMvaAsid            0                       # Number of times TLB was flushed by MVA & ASID
system.cpu.itb.stage2_mmu.stage2_tlb.flushTlbAsid            0                       # Number of times TLB was flushed by ASID
[...]
system.mem_ctrls.requestorWriteBytes::.writebacks         1024                       # Per-requestor bytes write to memory
system.mem_ctrls.requestorReadRate::.cpu.inst 608082.503189678770                       # Per-requestor bytes read from memory rate (Bytes/sec)
system.mem_ctrls.requestorReadRate::.cpu.data 319843.811449041008                       # Per-requestor bytes read from memory rate (Bytes/sec)
system.mem_ctrls.requestorWriteRate::.writebacks 20227.276613378090                       # Per-requestor bytes write to memory rate (Bytes/sec)
system.mem_ctrls.requestorReadAccesses::.cpu.inst          483                       # Per-requestor read serviced memory accesses
system.mem_ctrls.requestorReadAccesses::.cpu.data          253                       # Per-requestor read serviced memory accesses
system.mem_ctrls.requestorWriteAccesses::.writebacks           48                       # Per-requestor write serviced memory accesses
system.mem_ctrls.requestorReadTotalLat::.cpu.inst     13265625                       # Per-requestor read total memory access latency
system.mem_ctrls.requestorReadTotalLat::.cpu.data      8079000                       # Per-requestor read total memory access latency
system.mem_ctrls.requestorWriteTotalLat::.writebacks    106974375                       # Per-requestor write total memory access latency
system.mem_ctrls.requestorReadAvgLat::.cpu.inst     27465.06                       # Per-requestor read average memory access latency
system.mem_ctrls.requestorReadAvgLat::.cpu.data     31932.81                       # Per-requestor read average memory access latency
system.mem_ctrls.requestorWriteAvgLat::.writebacks   2228632.81                       # Per-requestor write average memory access latency
system.mem_ctrls.dram.bytes_read::.cpu.inst        30912                       # Number of bytes read from this memory
system.mem_ctrls.dram.bytes_read::.cpu.data        16192                       # Number of bytes read from this memory
system.mem_ctrls.dram.bytes_read::total         47104                       # Number of bytes read from this memory
system.mem_ctrls.dram.bytes_inst_read::.cpu.inst        30912                       # Number of instructions bytes read from this memory
system.mem_ctrls.dram.bytes_inst_read::total        30912                       # Number of instructions bytes read from this memory
system.mem_ctrls.dram.num_reads::.cpu.inst          483                       # Number of read requests responded to by this memory
system.mem_ctrls.dram.num_reads::.cpu.data          253                       # Number of read requests responded to by this memory
system.mem_ctrls.dram.num_reads::total            736                       # Number of read requests responded to by this memory
system.mem_ctrls.dram.bw_read::.cpu.inst       610611                       # Total read bandwidth from this memory (bytes/s)
system.mem_ctrls.dram.bw_read::.cpu.data       319844                       # Total read bandwidth from this memory (bytes/s)
system.mem_ctrls.dram.bw_read::total           930455                       # Total read bandwidth from this memory (bytes/s)
system.mem_ctrls.dram.bw_inst_read::.cpu.inst       610611                       # Instruction read bandwidth from this memory (bytes/s)
system.mem_ctrls.dram.bw_inst_read::total       610611                       # Instruction read bandwidth from this memory (bytes/s)
system.mem_ctrls.dram.bw_total::.cpu.inst       610611                       # Total bandwidth to/from this memory (bytes/s)
system.mem_ctrls.dram.bw_total::.cpu.data       319844                       # Total bandwidth to/from this memory (bytes/s)
system.mem_ctrls.dram.bw_total::total          930455                       # Total bandwidth to/from this memory (bytes/s)
system.mem_ctrls.dram.readBursts                  734                       # Number of DRAM read bursts
system.mem_ctrls.dram.writeBursts                  16                       # Number of DRAM write bursts
system.mem_ctrls.dram.perBankRdBursts::0           82                       # Per bank write bursts
system.mem_ctrls.dram.perBankRdBursts::1           24                       # Per bank write bursts
system.mem_ctrls.dram.perBankRdBursts::2           70                       # Per bank write bursts
system.mem_ctrls.dram.perBankRdBursts::3           27                       # Per bank write bursts
system.mem_ctrls.dram.perBankRdBursts::4           79                       # Per bank write bursts
system.mem_ctrls.dram.perBankRdBursts::5           58                       # Per bank write bursts
system.mem_ctrls.dram.perBankRdBursts::6           44                       # Per bank write bursts
system.mem_ctrls.dram.perBankRdBursts::7           55                       # Per bank write bursts
system.mem_ctrls.dram.perBankRdBursts::8           90                       # Per bank write bursts
system.mem_ctrls.dram.perBankRdBursts::9           58                       # Per bank write bursts
system.mem_ctrls.dram.perBankRdBursts::10           30                       # Per bank write bursts
system.mem_ctrls.dram.perBankRdBursts::11           29                       # Per bank write bursts
system.mem_ctrls.dram.perBankRdBursts::12           61                       # Per bank write bursts
system.mem_ctrls.dram.perBankRdBursts::13            0                       # Per bank write bursts
system.mem_ctrls.dram.perBankRdBursts::14            9                       # Per bank write bursts
system.mem_ctrls.dram.perBankRdBursts::15           18                       # Per bank write bursts
system.mem_ctrls.dram.perBankWrBursts::0            0                       # Per bank write bursts
system.mem_ctrls.dram.perBankWrBursts::1            0                       # Per bank write bursts
system.mem_ctrls.dram.perBankWrBursts::2            0                       # Per bank write bursts
system.mem_ctrls.dram.perBankWrBursts::3            0                       # Per bank write bursts
system.mem_ctrls.dram.perBankWrBursts::4            0                       # Per bank write bursts
system.mem_ctrls.dram.perBankWrBursts::5            0                       # Per bank write bursts
system.mem_ctrls.dram.perBankWrBursts::6            0                       # Per bank write bursts
system.mem_ctrls.dram.perBankWrBursts::7            0                       # Per bank write bursts
system.mem_ctrls.dram.perBankWrBursts::8            3                       # Per bank write bursts
system.mem_ctrls.dram.perBankWrBursts::9            2                       # Per bank write bursts
system.mem_ctrls.dram.perBankWrBursts::10            0                       # Per bank write bursts
system.mem_ctrls.dram.perBankWrBursts::11            0                       # Per bank write bursts
system.mem_ctrls.dram.perBankWrBursts::12            6                       # Per bank write bursts
system.mem_ctrls.dram.perBankWrBursts::13            0                       # Per bank write bursts
system.mem_ctrls.dram.perBankWrBursts::14            4                       # Per bank write bursts
system.mem_ctrls.dram.perBankWrBursts::15            1                       # Per bank write bursts
system.mem_ctrls.dram.totQLat                 7582125                       # Total ticks spent queuing
system.mem_ctrls.dram.totBusLat               3670000                       # Total ticks spent in databus transfers
system.mem_ctrls.dram.totMemAccLat           21344625                       # Total ticks spent from burst creation until serviced by the DRAM
system.mem_ctrls.dram.avgQLat                10329.87                       # Average queueing delay per DRAM burst
system.mem_ctrls.dram.avgBusLat               5000.00                       # Average bus latency per DRAM burst
system.mem_ctrls.dram.avgMemAccLat           29079.87                       # Average memory access latency per DRAM burst
system.mem_ctrls.dram.readRowHits                 593                       # Number of row buffer hits during reads
system.mem_ctrls.dram.writeRowHits                 11                       # Number of row buffer hits during writes
system.mem_ctrls.dram.readRowHitRate            80.79                       # Row buffer hit rate for reads
system.mem_ctrls.dram.writeRowHitRate           68.75                       # Row buffer hit rate for writes
system.mem_ctrls.dram.bytesPerActivate::samples          146                       # Bytes accessed per row activation
system.mem_ctrls.dram.bytesPerActivate::mean   328.767123                       # Bytes accessed per row activation
system.mem_ctrls.dram.bytesPerActivate::gmean   212.263871                       # Bytes accessed per row activation
system.mem_ctrls.dram.bytesPerActivate::stdev   304.450235                       # Bytes accessed per row activation
system.mem_ctrls.dram.bytesPerActivate::0-127           40     27.40%     27.40% # Bytes accessed per row activation
system.mem_ctrls.dram.bytesPerActivate::128-255           33     22.60%     50.00% # Bytes accessed per row activation
system.mem_ctrls.dram.bytesPerActivate::256-383           24     16.44%     66.44% # Bytes accessed per row activation
system.mem_ctrls.dram.bytesPerActivate::384-511           10      6.85%     73.29% # Bytes accessed per row activation
system.mem_ctrls.dram.bytesPerActivate::512-639           14      9.59%     82.88% # Bytes accessed per row activation
system.mem_ctrls.dram.bytesPerActivate::640-767            7      4.79%     87.67% # Bytes accessed per row activation
system.mem_ctrls.dram.bytesPerActivate::768-895            2      1.37%     89.04% # Bytes accessed per row activation
system.mem_ctrls.dram.bytesPerActivate::896-1023            4      2.74%     91.78% # Bytes accessed per row activation
system.mem_ctrls.dram.bytesPerActivate::1024-1151           12      8.22%    100.00% # Bytes accessed per row activation
system.mem_ctrls.dram.bytesPerActivate::total          146                       # Bytes accessed per row activation
system.mem_ctrls.dram.bytesRead                 46976                       # Total number of bytes read from DRAM
system.mem_ctrls.dram.bytesWritten               1024                       # Total number of bytes written to DRAM
system.mem_ctrls.dram.avgRdBW                0.927926                       # Average DRAM read bandwidth in MiBytes/s
system.mem_ctrls.dram.avgWrBW                0.020227                       # Average DRAM write bandwidth in MiBytes/s
system.mem_ctrls.dram.peakBW                 12800.00                       # Theoretical peak bandwidth in MiByte/s
system.mem_ctrls.dram.busUtil                    0.01                       # Data bus utilization in percentage
system.mem_ctrls.dram.busUtilRead                0.01                       # Data bus utilization in percentage for reads
system.mem_ctrls.dram.busUtilWrite               0.00                       # Data bus utilization in percentage for writes
system.mem_ctrls.dram.pageHitRate               80.53                       # Row buffer hit rate, read and write combined
system.mem_ctrls.dram.power_state.pwrStateResidencyTicks::UNDEFINED  50624709375                       # Cumulative time (in ticks) in various power states
system.mem_ctrls.dram.rank0.actEnergy          592620                       # Energy for activate commands per rank (pJ)
system.mem_ctrls.dram.rank0.preEnergy          314985                       # Energy for precharge commands per rank (pJ)
system.mem_ctrls.dram.rank0.readEnergy        3134460                       # Energy for read commands per rank (pJ)
system.mem_ctrls.dram.rank0.writeEnergy             0                       # Energy for write commands per rank (pJ)
system.mem_ctrls.dram.rank0.refreshEnergy 3995774640.000000                       # Energy for refresh commands per rank (pJ)
system.mem_ctrls.dram.rank0.actBackEnergy    762162960                       # Energy for active background per rank (pJ)
system.mem_ctrls.dram.rank0.preBackEnergy  18798067200                       # Energy for precharge background per rank (pJ)
system.mem_ctrls.dram.rank0.actPowerDownEnergy            0                       # Energy for active power-down per rank (pJ)
system.mem_ctrls.dram.rank0.prePowerDownEnergy            0                       # Energy for precharge power-down per rank (pJ)
system.mem_ctrls.dram.rank0.selfRefreshEnergy            0                       # Energy for self refresh per rank (pJ)
system.mem_ctrls.dram.rank0.totalEnergy   23560046865                       # Total energy per rank (pJ)
system.mem_ctrls.dram.rank0.averagePower   465.386313                       # Core power per rank (mW)
system.mem_ctrls.dram.rank0.totalIdleTime            0                       # Total Idle time Per DRAM Rank
system.mem_ctrls.dram.rank0.pwrStateTime::IDLE  48863756875                       # Time in different power states
system.mem_ctrls.dram.rank0.pwrStateTime::REF   1690260000                       # Time in different power states
system.mem_ctrls.dram.rank0.pwrStateTime::SREF            0                       # Time in different power states
system.mem_ctrls.dram.rank0.pwrStateTime::PRE_PDN            0                       # Time in different power states
system.mem_ctrls.dram.rank0.pwrStateTime::ACT     70692500                       # Time in different power states
system.mem_ctrls.dram.rank0.pwrStateTime::ACT_PDN            0                       # Time in different power states
system.mem_ctrls.dram.rank1.actEnergy          449820                       # Energy for activate commands per rank (pJ)
system.mem_ctrls.dram.rank1.preEnergy          239085                       # Energy for precharge commands per rank (pJ)
system.mem_ctrls.dram.rank1.readEnergy        2106300                       # Energy for read commands per rank (pJ)
system.mem_ctrls.dram.rank1.writeEnergy         83520                       # Energy for write commands per rank (pJ)
system.mem_ctrls.dram.rank1.refreshEnergy 3995774640.000000                       # Energy for refresh commands per rank (pJ)
system.mem_ctrls.dram.rank1.actBackEnergy    744665670                       # Energy for active background per rank (pJ)
system.mem_ctrls.dram.rank1.preBackEnergy  18812801760                       # Energy for precharge background per rank (pJ)
system.mem_ctrls.dram.rank1.actPowerDownEnergy            0                       # Energy for active power-down per rank (pJ)
system.mem_ctrls.dram.rank1.prePowerDownEnergy            0                       # Energy for precharge power-down per rank (pJ)
system.mem_ctrls.dram.rank1.selfRefreshEnergy            0                       # Energy for self refresh per rank (pJ)
system.mem_ctrls.dram.rank1.totalEnergy   23556120795                       # Total energy per rank (pJ)
system.mem_ctrls.dram.rank1.averagePower   465.308761                       # Core power per rank (mW)
system.mem_ctrls.dram.rank1.totalIdleTime            0                       # Total Idle time Per DRAM Rank
system.mem_ctrls.dram.rank1.pwrStateTime::IDLE  48902143750                       # Time in different power states
system.mem_ctrls.dram.rank1.pwrStateTime::REF   1690260000                       # Time in different power states
system.mem_ctrls.dram.rank1.pwrStateTime::SREF            0                       # Time in different power states
system.mem_ctrls.dram.rank1.pwrStateTime::PRE_PDN            0                       # Time in different power states
system.mem_ctrls.dram.rank1.pwrStateTime::ACT     32305625                       # Time in different power states
system.mem_ctrls.dram.rank1.pwrStateTime::ACT_PDN            0                       # Time in different power states
system.mem_ctrls.power_state.pwrStateResidencyTicks::UNDEFINED  50624709375                       # Cumulative time (in ticks) in various power states
system.membus.trans_dist::ReadResp                616                       # Transaction distribution
system.membus.trans_dist::WritebackClean           55                       # Transaction distribution
system.membus.trans_dist::ReadExReq               120                       # Transaction distribution
system.membus.trans_dist::ReadExResp              120                       # Transaction distribution
system.membus.trans_dist::ReadCleanReq            483                       # Transaction distribution
system.membus.trans_dist::ReadSharedReq           133                       # Transaction distribution
system.membus.pkt_count_system.cpu.icache.mem_side_port::system.mem_ctrls.port         1018                       # Packet count per connected requestor and responder (bytes)
system.membus.pkt_count_system.cpu.dcache.mem_side_port::system.mem_ctrls.port          509                       # Packet count per connected requestor and responder (bytes)
system.membus.pkt_count::total                   1527                       # Packet count per connected requestor and responder (bytes)
system.membus.pkt_size_system.cpu.icache.mem_side_port::system.mem_ctrls.port        34240                       # Cumulative packet size per connected requestor and responder (bytes)
system.membus.pkt_size_system.cpu.dcache.mem_side_port::system.mem_ctrls.port        16384                       # Cumulative packet size per connected requestor and responder (bytes)
system.membus.pkt_size::total                   50624                       # Cumulative packet size per connected requestor and responder (bytes)
system.membus.snoops                                0                       # Total snoops (count)
system.membus.snoopTraffic                          0                       # Total snoop traffic (bytes)
system.membus.snoop_fanout::samples               736                       # Request fanout histogram
system.membus.snoop_fanout::mean             0.046196                       # Request fanout histogram
system.membus.snoop_fanout::stdev            0.210051                       # Request fanout histogram
system.membus.snoop_fanout::underflows              0      0.00%      0.00% # Request fanout histogram
system.membus.snoop_fanout::0                     702     95.38%     95.38% # Request fanout histogram
system.membus.snoop_fanout::1                      34      4.62%    100.00% # Request fanout histogram
system.membus.snoop_fanout::2                       0      0.00%    100.00% # Request fanout histogram
system.membus.snoop_fanout::3                       0      0.00%    100.00% # Request fanout histogram
system.membus.snoop_fanout::4                       0      0.00%    100.00% # Request fanout histogram
system.membus.snoop_fanout::overflows               0      0.00%    100.00% # Request fanout histogram
system.membus.snoop_fanout::min_value               0                       # Request fanout histogram
system.membus.snoop_fanout::max_value               1                       # Request fanout histogram
system.membus.snoop_fanout::total                 736                       # Request fanout histogram
system.membus.power_state.pwrStateResidencyTicks::UNDEFINED  50624709375                       # Cumulative time (in ticks) in various power states
system.membus.reqLayer0.occupancy             1326000                       # Layer occupancy (ticks)
system.membus.reqLayer0.utilization               0.0                       # Layer utilization (%)
system.membus.respLayer1.occupancy            2560500                       # Layer occupancy (ticks)
system.membus.respLayer1.utilization              0.0                       # Layer utilization (%)
system.membus.respLayer2.occupancy            1359500                       # Layer occupancy (ticks)
system.membus.respLayer2.utilization              0.0                       # Layer utilization (%)
system.voltage_domain.voltage                       1                       # Voltage in Volts

---------- End Simulation Statistics   ----------
