
---------- Begin Simulation Statistics ----------
final_tick                                36931438125                       # Number of ticks from beginning of simulation (restored from checkpoints and never reset)
host_inst_rate                                 270633                       # Simulator instruction rate (inst/s)
host_mem_usage                                 656984                       # Number of bytes of host memory used
host_op_rate                                   295325                       # Simulator op (including micro ops) rate (op/s)
host_seconds                                   369.50                       # Real time elapsed on the host
host_tick_rate                               99948684                       # Simulator tick rate (ticks/s)
sim_freq                                 1000000000000                       # Frequency of simulated ticks
sim_insts                                   100000005                       # Number of instructions simulated
sim_ops                                     109123919                       # Number of ops (including micro ops) simulated
sim_seconds                                  0.036931                       # Number of seconds simulated
sim_ticks                                 36931438125                       # Number of ticks simulated
system.cpu.cc_regfile_reads                 393979730                       # number of cc regfile reads
system.cpu.cc_regfile_writes                 68727625                       # number of cc regfile writes
system.cpu.committedInsts                   100000005                       # Number of Instructions Simulated
system.cpu.committedOps                     109123919                       # Number of Ops (including micro ops) Simulated
system.cpu.cpi                               0.590903                       # CPI: Cycles Per Instruction
system.cpu.cpi_total                         0.590903                       # CPI: Total CPI of All Threads
system.cpu.idleCycles                           19385                       # Total number of cycles that the CPU has spent unscheduled due to idling
system.cpu.iew.branchMispredicts               165042                       # Number of branch mispredicts detected at execute
system.cpu.iew.branch_mispredict_rate        0.771261                       # Percentage of branch mispredicts
system.cpu.iew.branch_percentage            19.371539                       # Percentage of branches executed
system.cpu.iew.exec_branches                 21398983                       # Number of branches executed
system.cpu.iew.exec_nop                            15                       # number of nop insts executed
system.cpu.iew.exec_rate                     1.869445                       # Inst execution rate
system.cpu.iew.exec_refs                     37965766                       # number of memory reference insts executed
system.cpu.iew.exec_stores                   15744131                       # Number of stores executed
system.cpu.iew.exec_swp                             0                       # number of swp insts executed
system.cpu.iew.iewBlockCycles                  219195                       # Number of cycles IEW is blocking
system.cpu.iew.iewDispLoadInsts              22321972                       # Number of dispatched load instructions
system.cpu.iew.iewDispNonSpecInsts              90404                       # Number of dispatched non-speculative instructions
system.cpu.iew.iewDispSquashedInsts                 0                       # Number of squashed instructions skipped by dispatch
system.cpu.iew.iewDispStoreInsts             15897791                       # Number of dispatched store instructions
system.cpu.iew.iewDispatchedInsts           111972972                       # Number of instructions dispatched to IQ
system.cpu.iew.iewExecLoadInsts              22221635                       # Number of load instructions executed
system.cpu.iew.iewExecSquashedInsts            223994                       # Number of squashed instructions skipped in execute
system.cpu.iew.iewExecutedInsts             110466096                       # Number of executed instructions
system.cpu.iew.iewIQFullEvents                      0                       # Number of times the IQ has become full, causing a stall
system.cpu.iew.iewIdleCycles                        0                       # Number of cycles IEW is idle
system.cpu.iew.iewLSQFullEvents                 18746                       # Number of times the LSQ has become full, causing a stall
system.cpu.iew.iewSquashCycles                 158821                       # Number of cycles IEW is squashing
system.cpu.iew.iewUnblockCycles                 18751                       # Number of cycles IEW is unblocking
system.cpu.iew.memOrderViolationEvents            835                       # Number of memory order violations
system.cpu.iew.predictedNotTakenIncorrect       123118                       # Number of branches that were predicted not taken incorrectly
system.cpu.iew.predictedTakenIncorrect          41924                       # Number of branches that were predicted taken incorrectly
system.cpu.iew.wb_consumers                  99053902                       # num instructions consuming a value
system.cpu.iew.wb_count                     110015925                       # cumulative count of insts written-back
system.cpu.iew.wb_fanout                     0.591731                       # average fanout of values written-back
system.cpu.iew.wb_producers                  58613313                       # num instructions producing a value
system.cpu.iew.wb_rate                       1.861827                       # insts written-back per cycle
system.cpu.iew.wb_sent                      110113200                       # cumulative count of insts sent to commit
system.cpu.int_regfile_reads                109473359                       # number of integer regfile reads
system.cpu.int_regfile_writes                55351445                       # number of integer regfile writes
system.cpu.ipc                               1.692325                       # IPC: Instructions Per Cycle
system.cpu.ipc_total                         1.692325                       # IPC: Total IPC of All Threads
system.cpu.iq.FU_type_0::No_OpClass                 1      0.00%      0.00% # Type of FU issued
system.cpu.iq.FU_type_0::IntAlu              72178810     65.21%     65.21% # Type of FU issued
system.cpu.iq.FU_type_0::IntMult               424191      0.38%     65.59% # Type of FU issued
system.cpu.iq.FU_type_0::IntDiv                     0      0.00%     65.59% # Type of FU issued
system.cpu.iq.FU_type_0::FloatAdd                   0      0.00%     65.59% # Type of FU issued
system.cpu.iq.FU_type_0::FloatCmp                   0      0.00%     65.59% # Type of FU issued
system.cpu.iq.FU_type_0::FloatCvt                   0      0.00%     65.59% # Type of FU issued
system.cpu.iq.FU_type_0::FloatMult                  0      0.00%     65.59% # Type of FU issued
system.cpu.iq.FU_type_0::FloatMultAcc               0      0.00%     65.59% # Type of FU issued
system.cpu.iq.FU_type_0::FloatDiv                   0      0.00%     65.59% # Type of FU issued
system.cpu.iq.FU_type_0::FloatMisc                  0      0.00%     65.59% # Type of FU issued
system.cpu.iq.FU_type_0::FloatSqrt                  0      0.00%     65.59% # Type of FU issued
system.cpu.iq.FU_type_0::SimdAdd                   49      0.00%     65.59% # Type of FU issued
system.cpu.iq.FU_type_0::SimdAddAcc                 2      0.00%     65.59% # Type of FU issued
system.cpu.iq.FU_type_0::SimdAlu                    0      0.00%     65.59% # Type of FU issued
system.cpu.iq.FU_type_0::SimdCmp                    0      0.00%     65.59% # Type of FU issued
system.cpu.iq.FU_type_0::SimdCvt                    0      0.00%     65.59% # Type of FU issued
system.cpu.iq.FU_type_0::SimdMisc                   0      0.00%     65.59% # Type of FU issued
system.cpu.iq.FU_type_0::SimdMult                   0      0.00%     65.59% # Type of FU issued
system.cpu.iq.FU_type_0::SimdMultAcc                0      0.00%     65.59% # Type of FU issued
system.cpu.iq.FU_type_0::SimdShift                 29      0.00%     65.59% # Type of FU issued
system.cpu.iq.FU_type_0::SimdShiftAcc               0      0.00%     65.59% # Type of FU issued
system.cpu.iq.FU_type_0::SimdDiv                    0      0.00%     65.59% # Type of FU issued
system.cpu.iq.FU_type_0::SimdSqrt                   0      0.00%     65.59% # Type of FU issued
system.cpu.iq.FU_type_0::SimdFloatAdd               0      0.00%     65.59% # Type of FU issued
system.cpu.iq.FU_type_0::SimdFloatAlu               0      0.00%     65.59% # Type of FU issued
system.cpu.iq.FU_type_0::SimdFloatCmp               0      0.00%     65.59% # Type of FU issued
system.cpu.iq.FU_type_0::SimdFloatCvt               0      0.00%     65.59% # Type of FU issued
system.cpu.iq.FU_type_0::SimdFloatDiv               0      0.00%     65.59% # Type of FU issued
system.cpu.iq.FU_type_0::SimdFloatMisc              0      0.00%     65.59% # Type of FU issued
system.cpu.iq.FU_type_0::SimdFloatMult              0      0.00%     65.59% # Type of FU issued
system.cpu.iq.FU_type_0::SimdFloatMultAcc            0      0.00%     65.59% # Type of FU issued
system.cpu.iq.FU_type_0::SimdFloatSqrt              0      0.00%     65.59% # Type of FU issued
system.cpu.iq.FU_type_0::SimdReduceAdd              0      0.00%     65.59% # Type of FU issued
system.cpu.iq.FU_type_0::SimdReduceAlu              0      0.00%     65.59% # Type of FU issued
system.cpu.iq.FU_type_0::SimdReduceCmp              0      0.00%     65.59% # Type of FU issued
system.cpu.iq.FU_type_0::SimdFloatReduceAdd            0      0.00%     65.59% # Type of FU issued
system.cpu.iq.FU_type_0::SimdFloatReduceCmp            0      0.00%     65.59% # Type of FU issued
system.cpu.iq.FU_type_0::SimdAes                    0      0.00%     65.59% # Type of FU issued
system.cpu.iq.FU_type_0::SimdAesMix                 0      0.00%     65.59% # Type of FU issued
system.cpu.iq.FU_type_0::SimdSha1Hash               0      0.00%     65.59% # Type of FU issued
system.cpu.iq.FU_type_0::SimdSha1Hash2              0      0.00%     65.59% # Type of FU issued
system.cpu.iq.FU_type_0::SimdSha256Hash             0      0.00%     65.59% # Type of FU issued
system.cpu.iq.FU_type_0::SimdSha256Hash2            0      0.00%     65.59% # Type of FU issued
system.cpu.iq.FU_type_0::SimdShaSigma2              0      0.00%     65.59% # Type of FU issued
system.cpu.iq.FU_type_0::SimdShaSigma3              0      0.00%     65.59% # Type of FU issued
system.cpu.iq.FU_type_0::SimdPredAlu                0      0.00%     65.59% # Type of FU issued
system.cpu.iq.FU_type_0::MemRead             22316430     20.16%     85.75% # Type of FU issued
system.cpu.iq.FU_type_0::MemWrite            15770581     14.25%    100.00% # Type of FU issued
system.cpu.iq.FU_type_0::FloatMemRead               0      0.00%    100.00% # Type of FU issued
system.cpu.iq.FU_type_0::FloatMemWrite              0      0.00%    100.00% # Type of FU issued
system.cpu.iq.FU_type_0::IprAccess                  0      0.00%    100.00% # Type of FU issued
system.cpu.iq.FU_type_0::InstPrefetch               0      0.00%    100.00% # Type of FU issued
system.cpu.iq.FU_type_0::total              110690093                       # Type of FU issued
system.cpu.iq.fp_alu_accesses                       0                       # Number of floating point alu accesses
system.cpu.iq.fp_inst_queue_reads                   0                       # Number of floating instruction queue reads
system.cpu.iq.fp_inst_queue_wakeup_accesses            0                       # Number of floating instruction queue wakeup accesses
system.cpu.iq.fp_inst_queue_writes                  0                       # Number of floating instruction queue writes
system.cpu.iq.fu_busy_cnt                    36440445                       # FU busy when requested
system.cpu.iq.fu_busy_rate                   0.329211                       # FU busy rate (busy events/executed inst)
system.cpu.iq.fu_full::No_OpClass                   0      0.00%      0.00% # attempts to use FU when none available
system.cpu.iq.fu_full::IntAlu                20054416     55.03%     55.03% # attempts to use FU when none available
system.cpu.iq.fu_full::IntMult                      0      0.00%     55.03% # attempts to use FU when none available
system.cpu.iq.fu_full::IntDiv                       0      0.00%     55.03% # attempts to use FU when none available
system.cpu.iq.fu_full::FloatAdd                     0      0.00%     55.03% # attempts to use FU when none available
system.cpu.iq.fu_full::FloatCmp                     0      0.00%     55.03% # attempts to use FU when none available
system.cpu.iq.fu_full::FloatCvt                     0      0.00%     55.03% # attempts to use FU when none available
system.cpu.iq.fu_full::FloatMult                    0      0.00%     55.03% # attempts to use FU when none available
system.cpu.iq.fu_full::FloatMultAcc                 0      0.00%     55.03% # attempts to use FU when none available
system.cpu.iq.fu_full::FloatDiv                     0      0.00%     55.03% # attempts to use FU when none available
system.cpu.iq.fu_full::FloatMisc                    0      0.00%     55.03% # attempts to use FU when none available
system.cpu.iq.fu_full::FloatSqrt                    0      0.00%     55.03% # attempts to use FU when none available
system.cpu.iq.fu_full::SimdAdd                      0      0.00%     55.03% # attempts to use FU when none available
system.cpu.iq.fu_full::SimdAddAcc                   0      0.00%     55.03% # attempts to use FU when none available
system.cpu.iq.fu_full::SimdAlu                      0      0.00%     55.03% # attempts to use FU when none available
system.cpu.iq.fu_full::SimdCmp                      0      0.00%     55.03% # attempts to use FU when none available
system.cpu.iq.fu_full::SimdCvt                      0      0.00%     55.03% # attempts to use FU when none available
system.cpu.iq.fu_full::SimdMisc                     0      0.00%     55.03% # attempts to use FU when none available
system.cpu.iq.fu_full::SimdMult                     0      0.00%     55.03% # attempts to use FU when none available
system.cpu.iq.fu_full::SimdMultAcc                  0      0.00%     55.03% # attempts to use FU when none available
system.cpu.iq.fu_full::SimdShift                    0      0.00%     55.03% # attempts to use FU when none available
system.cpu.iq.fu_full::SimdShiftAcc                 0      0.00%     55.03% # attempts to use FU when none available
system.cpu.iq.fu_full::SimdDiv                      0      0.00%     55.03% # attempts to use FU when none available
system.cpu.iq.fu_full::SimdSqrt                     0      0.00%     55.03% # attempts to use FU when none available
system.cpu.iq.fu_full::SimdFloatAdd                 0      0.00%     55.03% # attempts to use FU when none available
system.cpu.iq.fu_full::SimdFloatAlu                 0      0.00%     55.03% # attempts to use FU when none available
system.cpu.iq.fu_full::SimdFloatCmp                 0      0.00%     55.03% # attempts to use FU when none available
system.cpu.iq.fu_full::SimdFloatCvt                 0      0.00%     55.03% # attempts to use FU when none available
system.cpu.iq.fu_full::SimdFloatDiv                 0      0.00%     55.03% # attempts to use FU when none available
system.cpu.iq.fu_full::SimdFloatMisc                0      0.00%     55.03% # attempts to use FU when none available
system.cpu.iq.fu_full::SimdFloatMult                0      0.00%     55.03% # attempts to use FU when none available
system.cpu.iq.fu_full::SimdFloatMultAcc             0      0.00%     55.03% # attempts to use FU when none available
system.cpu.iq.fu_full::SimdFloatSqrt                0      0.00%     55.03% # attempts to use FU when none available
system.cpu.iq.fu_full::SimdReduceAdd                0      0.00%     55.03% # attempts to use FU when none available
system.cpu.iq.fu_full::SimdReduceAlu                0      0.00%     55.03% # attempts to use FU when none available
system.cpu.iq.fu_full::SimdReduceCmp                0      0.00%     55.03% # attempts to use FU when none available
system.cpu.iq.fu_full::SimdFloatReduceAdd            0      0.00%     55.03% # attempts to use FU when none available
system.cpu.iq.fu_full::SimdFloatReduceCmp            0      0.00%     55.03% # attempts to use FU when none available
system.cpu.iq.fu_full::SimdAes                      0      0.00%     55.03% # attempts to use FU when none available
system.cpu.iq.fu_full::SimdAesMix                   0      0.00%     55.03% # attempts to use FU when none available
system.cpu.iq.fu_full::SimdSha1Hash                 0      0.00%     55.03% # attempts to use FU when none available
system.cpu.iq.fu_full::SimdSha1Hash2                0      0.00%     55.03% # attempts to use FU when none available
system.cpu.iq.fu_full::SimdSha256Hash               0      0.00%     55.03% # attempts to use FU when none available
system.cpu.iq.fu_full::SimdSha256Hash2              0      0.00%     55.03% # attempts to use FU when none available
system.cpu.iq.fu_full::SimdShaSigma2                0      0.00%     55.03% # attempts to use FU when none available
system.cpu.iq.fu_full::SimdShaSigma3                0      0.00%     55.03% # attempts to use FU when none available
system.cpu.iq.fu_full::SimdPredAlu                  0      0.00%     55.03% # attempts to use FU when none available
system.cpu.iq.fu_full::MemRead                9868065     27.08%     82.11% # attempts to use FU when none available
system.cpu.iq.fu_full::MemWrite               6517964     17.89%    100.00% # attempts to use FU when none available
system.cpu.iq.fu_full::FloatMemRead                 0      0.00%    100.00% # attempts to use FU when none available
system.cpu.iq.fu_full::FloatMemWrite                0      0.00%    100.00% # attempts to use FU when none available
system.cpu.iq.fu_full::IprAccess                    0      0.00%    100.00% # attempts to use FU when none available
system.cpu.iq.fu_full::InstPrefetch                 0      0.00%    100.00% # attempts to use FU when none available
system.cpu.iq.int_alu_accesses              147130537                       # Number of integer alu accesses
system.cpu.iq.int_inst_queue_reads          317134106                       # Number of integer instruction queue reads
system.cpu.iq.int_inst_queue_wakeup_accesses    110015925                       # Number of integer instruction queue wakeup accesses
system.cpu.iq.int_inst_queue_writes         114822806                       # Number of integer instruction queue writes
system.cpu.iq.iqInstsAdded                  111792491                       # Number of instructions added to the IQ (excludes non-spec)
system.cpu.iq.iqInstsIssued                 110690093                       # Number of instructions issued
system.cpu.iq.iqNonSpecInstsAdded              180466                       # Number of non-speculative instructions added to the IQ
system.cpu.iq.iqSquashedInstsExamined         2849014                       # Number of squashed instructions iterated over during squash; mainly for profiling
system.cpu.iq.iqSquashedInstsIssued            242561                       # Number of squashed instructions issued
system.cpu.iq.iqSquashedNonSpecRemoved            261                       # Number of squashed non-spec instructions that were removed
system.cpu.iq.iqSquashedOperandsExamined      8154064                       # Number of squashed operands that are examined and possibly removed from graph
system.cpu.iq.issued_per_cycle::samples      59070917                       # Number of insts issued each cycle
system.cpu.iq.issued_per_cycle::mean         1.873851                       # Number of insts issued each cycle
system.cpu.iq.issued_per_cycle::stdev        1.144379                       # Number of insts issued each cycle
system.cpu.iq.issued_per_cycle::underflows            0      0.00%      0.00% # Number of insts issued each cycle
system.cpu.iq.issued_per_cycle::0            10441172     17.68%     17.68% # Number of insts issued each cycle
system.cpu.iq.issued_per_cycle::1             8591747     14.54%     32.22% # Number of insts issued each cycle
system.cpu.iq.issued_per_cycle::2            20918987     35.41%     67.63% # Number of insts issued each cycle
system.cpu.iq.issued_per_cycle::3            16272722     27.55%     95.18% # Number of insts issued each cycle
system.cpu.iq.issued_per_cycle::4             2789239      4.72%     99.90% # Number of insts issued each cycle
system.cpu.iq.issued_per_cycle::5               57050      0.10%    100.00% # Number of insts issued each cycle
system.cpu.iq.issued_per_cycle::6                   0      0.00%    100.00% # Number of insts issued each cycle
system.cpu.iq.issued_per_cycle::7                   0      0.00%    100.00% # Number of insts issued each cycle
system.cpu.iq.issued_per_cycle::8                   0      0.00%    100.00% # Number of insts issued each cycle
system.cpu.iq.issued_per_cycle::overflows            0      0.00%    100.00% # Number of insts issued each cycle
system.cpu.iq.issued_per_cycle::min_value            0                       # Number of insts issued each cycle
system.cpu.iq.issued_per_cycle::max_value            5                       # Number of insts issued each cycle
system.cpu.iq.issued_per_cycle::total        59070917                       # Number of insts issued each cycle
system.cpu.iq.rate                           1.873236                       # Inst issue rate
system.cpu.iq.vec_alu_accesses                      0                       # Number of vector alu accesses
system.cpu.iq.vec_inst_queue_reads                  0                       # Number of vector instruction queue reads
system.cpu.iq.vec_inst_queue_wakeup_accesses            0                       # Number of vector instruction queue wakeup accesses
system.cpu.iq.vec_inst_queue_writes                 0                       # Number of vector instruction queue writes
system.cpu.memDep0.conflictingLoads           1417089                       # Number of conflicting loads.
system.cpu.memDep0.conflictingStores           697383                       # Number of conflicting stores.
system.cpu.memDep0.insertedLoads             22321972                       # Number of loads inserted to the mem dependence unit.
system.cpu.memDep0.insertedStores            15897791                       # Number of stores inserted to the mem dependence unit.
system.cpu.misc_regfile_reads               296305774                       # number of misc regfile reads
system.cpu.misc_regfile_writes                 360229                       # number of misc regfile writes
system.cpu.numCycles                         59090302                       # number of cpu cycles simulated
system.cpu.numWorkItemsCompleted                    0                       # number of work items this cpu completed
system.cpu.numWorkItemsStarted                      0                       # number of work items this cpu started
system.cpu.timesIdled                             308                       # Number of times that the entire CPU went into an idle state and unscheduled itself
system.cpu.vec_regfile_reads                    95944                       # number of vector regfile reads
system.cpu.vec_regfile_writes                   97164                       # number of vector regfile writes
system.cpu.workload.numSyscalls                    90                       # Number of system calls
system.membus.snoop_filter.hit_multi_requests           83                       # Number of requests hitting in the snoop filter with multiple (>1) holders of the requested data.
system.membus.snoop_filter.hit_multi_snoops            0                       # Number of snoops hitting in the snoop filter with multiple (>1) holders of the requested data.
system.membus.snoop_filter.hit_single_requests        59646                       # Number of requests hitting in the snoop filter with a single holder of the requested data.
system.membus.snoop_filter.hit_single_snoops            0                       # Number of snoops hitting in the snoop filter with a single holder of the requested data.
system.membus.snoop_filter.tot_requests        120157                       # Total number of requests made to the snoop filter.
system.membus.snoop_filter.tot_snoops               0                       # Total number of snoops made to the snoop filter.
system.clk_domain.clock                          1000                       # Clock period in ticks
system.cpu.branchPred.lookups                22989014                       # Number of BP lookups
system.cpu.branchPred.condPredicted          18132194                       # Number of conditional branches predicted
system.cpu.branchPred.condIncorrect            311854                       # Number of conditional branches incorrect
system.cpu.branchPred.BTBLookups              9620525                       # Number of BTB lookups
system.cpu.branchPred.BTBHits                 9233453                       # Number of BTB hits
system.cpu.branchPred.BTBHitPct             95.976602                       # BTB Hit Percentage
system.cpu.branchPred.RASUsed                 1403735                       # Number of times the RAS was used to get a target.
system.cpu.branchPred.RASIncorrect                360                       # Number of incorrect RAS predictions.
system.cpu.branchPred.indirectLookups          370315                       # Number of indirect predictor lookups.
system.cpu.branchPred.indirectHits             369655                       # Number of indirect target hits.
system.cpu.branchPred.indirectMisses              660                       # Number of indirect misses.
system.cpu.branchPred.indirectMispredicted         1382                       # Number of mispredicted indirect branches.
system.cpu.commit.commitSquashedInsts         2459133                       # The number of squashed insts skipped by commit
system.cpu.commit.commitNonSpecStalls          180205                       # The number of times commit has been forced to stall to communicate backwards
system.cpu.commit.branchMispredicts            157291                       # The number of times a branch was mispredicted
system.cpu.commit.numCommittedDist::samples     58693458                       # Number of insts commited each cycle
system.cpu.commit.numCommittedDist::mean     1.859218                       # Number of insts commited each cycle
system.cpu.commit.numCommittedDist::stdev     2.173714                       # Number of insts commited each cycle
system.cpu.commit.numCommittedDist::underflows            0      0.00%      0.00% # Number of insts commited each cycle
system.cpu.commit.numCommittedDist::0        19153599     32.63%     32.63% # Number of insts commited each cycle
system.cpu.commit.numCommittedDist::1        16222497     27.64%     60.27% # Number of insts commited each cycle
system.cpu.commit.numCommittedDist::2         6802517     11.59%     71.86% # Number of insts commited each cycle
system.cpu.commit.numCommittedDist::3         6181119     10.53%     82.39% # Number of insts commited each cycle
system.cpu.commit.numCommittedDist::4         2728932      4.65%     87.04% # Number of insts commited each cycle
system.cpu.commit.numCommittedDist::5         2066331      3.52%     90.56% # Number of insts commited each cycle
system.cpu.commit.numCommittedDist::6         1699518      2.90%     93.46% # Number of insts commited each cycle
system.cpu.commit.numCommittedDist::7         1403020      2.39%     95.85% # Number of insts commited each cycle
system.cpu.commit.numCommittedDist::8         2435925      4.15%    100.00% # Number of insts commited each cycle
system.cpu.commit.numCommittedDist::overflows            0      0.00%    100.00% # Number of insts commited each cycle
system.cpu.commit.numCommittedDist::min_value            0                       # Number of insts commited each cycle
system.cpu.commit.numCommittedDist::max_value            8                       # Number of insts commited each cycle
system.cpu.commit.numCommittedDist::total     58693458                       # Number of insts commited each cycle
system.cpu.commit.instsCommitted            100000005                       # Number of instructions committed
system.cpu.commit.opsCommitted              109123919                       # Number of ops (including micro ops) committed
system.cpu.commit.memRefs                    37273419                       # Number of memory references committed
system.cpu.commit.loads                      21632609                       # Number of loads committed
system.cpu.commit.amos                              0                       # Number of atomic instructions committed
system.cpu.commit.membars                       90058                       # Number of memory barriers committed
system.cpu.commit.branches                   21269205                       # Number of branches committed
system.cpu.commit.vector                            0                       # Number of committed Vector instructions.
system.cpu.commit.floating                          0                       # Number of committed floating point instructions.
system.cpu.commit.integer                    87226995                       # Number of committed integer instructions.
system.cpu.commit.functionCalls               1101808                       # Number of function calls committed.
system.cpu.commit.committedInstType_0::No_OpClass            0      0.00%      0.00% # Class of committed instruction
system.cpu.commit.committedInstType_0::IntAlu     71426310     65.45%     65.45% # Class of committed instruction
system.cpu.commit.committedInstType_0::IntMult       424190      0.39%     65.84% # Class of committed instruction
system.cpu.commit.committedInstType_0::IntDiv            0      0.00%     65.84% # Class of committed instruction
system.cpu.commit.committedInstType_0::FloatAdd            0      0.00%     65.84% # Class of committed instruction
system.cpu.commit.committedInstType_0::FloatCmp            0      0.00%     65.84% # Class of committed instruction
system.cpu.commit.committedInstType_0::FloatCvt            0      0.00%     65.84% # Class of committed instruction
system.cpu.commit.committedInstType_0::FloatMult            0      0.00%     65.84% # Class of committed instruction
system.cpu.commit.committedInstType_0::FloatMultAcc            0      0.00%     65.84% # Class of committed instruction
system.cpu.commit.committedInstType_0::FloatDiv            0      0.00%     65.84% # Class of committed instruction
system.cpu.commit.committedInstType_0::FloatMisc            0      0.00%     65.84% # Class of committed instruction
system.cpu.commit.committedInstType_0::FloatSqrt            0      0.00%     65.84% # Class of committed instruction
system.cpu.commit.committedInstType_0::SimdAdd            0      0.00%     65.84% # Class of committed instruction
system.cpu.commit.committedInstType_0::SimdAddAcc            0      0.00%     65.84% # Class of committed instruction
system.cpu.commit.committedInstType_0::SimdAlu            0      0.00%     65.84% # Class of committed instruction
system.cpu.commit.committedInstType_0::SimdCmp            0      0.00%     65.84% # Class of committed instruction
system.cpu.commit.committedInstType_0::SimdCvt            0      0.00%     65.84% # Class of committed instruction
system.cpu.commit.committedInstType_0::SimdMisc            0      0.00%     65.84% # Class of committed instruction
system.cpu.commit.committedInstType_0::SimdMult            0      0.00%     65.84% # Class of committed instruction
system.cpu.commit.committedInstType_0::SimdMultAcc            0      0.00%     65.84% # Class of committed instruction
system.cpu.commit.committedInstType_0::SimdShift            0      0.00%     65.84% # Class of committed instruction
system.cpu.commit.committedInstType_0::SimdShiftAcc            0      0.00%     65.84% # Class of committed instruction
system.cpu.commit.committedInstType_0::SimdDiv            0      0.00%     65.84% # Class of committed instruction
system.cpu.commit.committedInstType_0::SimdSqrt            0      0.00%     65.84% # Class of committed instruction
system.cpu.commit.committedInstType_0::SimdFloatAdd            0      0.00%     65.84% # Class of committed instruction
system.cpu.commit.committedInstType_0::SimdFloatAlu            0      0.00%     65.84% # Class of committed instruction
system.cpu.commit.committedInstType_0::SimdFloatCmp            0      0.00%     65.84% # Class of committed instruction
system.cpu.commit.committedInstType_0::SimdFloatCvt            0      0.00%     65.84% # Class of committed instruction
system.cpu.commit.committedInstType_0::SimdFloatDiv            0      0.00%     65.84% # Class of committed instruction
system.cpu.commit.committedInstType_0::SimdFloatMisc            0      0.00%     65.84% # Class of committed instruction
system.cpu.commit.committedInstType_0::SimdFloatMult            0      0.00%     65.84% # Class of committed instruction
system.cpu.commit.committedInstType_0::SimdFloatMultAcc            0      0.00%     65.84% # Class of committed instruction
system.cpu.commit.committedInstType_0::SimdFloatSqrt            0      0.00%     65.84% # Class of committed instruction
system.cpu.commit.committedInstType_0::SimdReduceAdd            0      0.00%     65.84% # Class of committed instruction
system.cpu.commit.committedInstType_0::SimdReduceAlu            0      0.00%     65.84% # Class of committed instruction
system.cpu.commit.committedInstType_0::SimdReduceCmp            0      0.00%     65.84% # Class of committed instruction
system.cpu.commit.committedInstType_0::SimdFloatReduceAdd            0      0.00%     65.84% # Class of committed instruction
system.cpu.commit.committedInstType_0::SimdFloatReduceCmp            0      0.00%     65.84% # Class of committed instruction
system.cpu.commit.committedInstType_0::SimdAes            0      0.00%     65.84% # Class of committed instruction
system.cpu.commit.committedInstType_0::SimdAesMix            0      0.00%     65.84% # Class of committed instruction
system.cpu.commit.committedInstType_0::SimdSha1Hash            0      0.00%     65.84% # Class of committed instruction
system.cpu.commit.committedInstType_0::SimdSha1Hash2            0      0.00%     65.84% # Class of committed instruction
system.cpu.commit.committedInstType_0::SimdSha256Hash            0      0.00%     65.84% # Class of committed instruction
system.cpu.commit.committedInstType_0::SimdSha256Hash2            0      0.00%     65.84% # Class of committed instruction
system.cpu.commit.committedInstType_0::SimdShaSigma2            0      0.00%     65.84% # Class of committed instruction
system.cpu.commit.committedInstType_0::SimdShaSigma3            0      0.00%     65.84% # Class of committed instruction
system.cpu.commit.committedInstType_0::SimdPredAlu            0      0.00%     65.84% # Class of committed instruction
system.cpu.commit.committedInstType_0::MemRead     21632609     19.82%     85.67% # Class of committed instruction
system.cpu.commit.committedInstType_0::MemWrite     15640810     14.33%    100.00% # Class of committed instruction
system.cpu.commit.committedInstType_0::FloatMemRead            0      0.00%    100.00% # Class of committed instruction
system.cpu.commit.committedInstType_0::FloatMemWrite            0      0.00%    100.00% # Class of committed instruction
system.cpu.commit.committedInstType_0::IprAccess            0      0.00%    100.00% # Class of committed instruction
system.cpu.commit.committedInstType_0::InstPrefetch            0      0.00%    100.00% # Class of committed instruction
system.cpu.commit.committedInstType_0::total    109123919                       # Class of committed instruction
system.cpu.commit.commitEligibleSamples       2435925                       # number cycles where commit BW limit reached
system.cpu.dcache.demand_hits::.cpu.data     34438491                       # number of demand (read+write) hits
system.cpu.dcache.demand_hits::total         34438491                       # number of demand (read+write) hits
system.cpu.dcache.overall_hits::.cpu.data     34441864                       # number of overall hits
system.cpu.dcache.overall_hits::total        34441864                       # number of overall hits
system.cpu.dcache.demand_misses::.cpu.data       130010                       # number of demand (read+write) misses
system.cpu.dcache.demand_misses::total         130010                       # number of demand (read+write) misses
system.cpu.dcache.overall_misses::.cpu.data       130050                       # number of overall misses
system.cpu.dcache.overall_misses::total        130050                       # number of overall misses
system.cpu.dcache.demand_miss_latency::.cpu.data   8068605874                       # number of demand (read+write) miss cycles
system.cpu.dcache.demand_miss_latency::total   8068605874                       # number of demand (read+write) miss cycles
system.cpu.dcache.overall_miss_latency::.cpu.data   8068605874                       # number of overall miss cycles
system.cpu.dcache.overall_miss_latency::total   8068605874                       # number of overall miss cycles
system.cpu.dcache.demand_accesses::.cpu.data     34568501                       # number of demand (read+write) accesses
system.cpu.dcache.demand_accesses::total     34568501                       # number of demand (read+write) accesses
system.cpu.dcache.overall_accesses::.cpu.data     34571914                       # number of overall (read+write) accesses
system.cpu.dcache.overall_accesses::total     34571914                       # number of overall (read+write) accesses
system.cpu.dcache.demand_miss_rate::.cpu.data     0.003761                       # miss rate for demand accesses
system.cpu.dcache.demand_miss_rate::total     0.003761                       # miss rate for demand accesses
system.cpu.dcache.overall_miss_rate::.cpu.data     0.003762                       # miss rate for overall accesses
system.cpu.dcache.overall_miss_rate::total     0.003762                       # miss rate for overall accesses
system.cpu.dcache.demand_avg_miss_latency::.cpu.data 62061.425075                       # average overall miss latency
system.cpu.dcache.demand_avg_miss_latency::total 62061.425075                       # average overall miss latency
system.cpu.dcache.overall_avg_miss_latency::.cpu.data 62042.336594                       # average overall miss latency
system.cpu.dcache.overall_avg_miss_latency::total 62042.336594                       # average overall miss latency
system.cpu.dcache.blocked_cycles::no_mshrs            0                       # number of cycles access was blocked
system.cpu.dcache.blocked_cycles::no_targets       208385                       # number of cycles access was blocked
system.cpu.dcache.blocked::no_mshrs                 0                       # number of cycles access was blocked
system.cpu.dcache.blocked::no_targets            2338                       # number of cycles access was blocked
system.cpu.dcache.avg_blocked_cycles::no_mshrs          nan                       # average number of cycles each access was blocked
system.cpu.dcache.avg_blocked_cycles::no_targets    89.129598                       # average number of cycles each access was blocked
system.cpu.dcache.writebacks::.writebacks        59606                       # number of writebacks
system.cpu.dcache.writebacks::total             59606                       # number of writebacks
system.cpu.dcache.demand_mshr_hits::.cpu.data        69931                       # number of demand (read+write) MSHR hits
system.cpu.dcache.demand_mshr_hits::total        69931                       # number of demand (read+write) MSHR hits
system.cpu.dcache.overall_mshr_hits::.cpu.data        69931                       # number of overall MSHR hits
system.cpu.dcache.overall_mshr_hits::total        69931                       # number of overall MSHR hits
system.cpu.dcache.demand_mshr_misses::.cpu.data        60079                       # number of demand (read+write) MSHR misses
system.cpu.dcache.demand_mshr_misses::total        60079                       # number of demand (read+write) MSHR misses
system.cpu.dcache.overall_mshr_misses::.cpu.data        60116                       # number of overall MSHR misses
system.cpu.dcache.overall_mshr_misses::total        60116                       # number of overall MSHR misses
system.cpu.dcache.demand_mshr_miss_latency::.cpu.data   3803870875                       # number of demand (read+write) MSHR miss cycles
system.cpu.dcache.demand_mshr_miss_latency::total   3803870875                       # number of demand (read+write) MSHR miss cycles
system.cpu.dcache.overall_mshr_miss_latency::.cpu.data   3806522375                       # number of overall MSHR miss cycles
system.cpu.dcache.overall_mshr_miss_latency::total   3806522375                       # number of overall MSHR miss cycles
system.cpu.dcache.demand_mshr_miss_rate::.cpu.data     0.001738                       # mshr miss rate for demand accesses
system.cpu.dcache.demand_mshr_miss_rate::total     0.001738                       # mshr miss rate for demand accesses
system.cpu.dcache.overall_mshr_miss_rate::.cpu.data     0.001739                       # mshr miss rate for overall accesses
system.cpu.dcache.overall_mshr_miss_rate::total     0.001739                       # mshr miss rate for overall accesses
system.cpu.dcache.demand_avg_mshr_miss_latency::.cpu.data 63314.483846                       # average overall mshr miss latency
system.cpu.dcache.demand_avg_mshr_miss_latency::total 63314.483846                       # average overall mshr miss latency
system.cpu.dcache.overall_avg_mshr_miss_latency::.cpu.data 63319.621648                       # average overall mshr miss latency
system.cpu.dcache.overall_avg_mshr_miss_latency::total 63319.621648                       # average overall mshr miss latency
system.cpu.dcache.replacements                  59606                       # number of replacements
system.cpu.dcache.ReadReq_hits::.cpu.data     19817960                       # number of ReadReq hits
system.cpu.dcache.ReadReq_hits::total        19817960                       # number of ReadReq hits
system.cpu.dcache.ReadReq_misses::.cpu.data        35489                       # number of ReadReq misses
system.cpu.dcache.ReadReq_misses::total         35489                       # number of ReadReq misses
system.cpu.dcache.ReadReq_miss_latency::.cpu.data   2328247625                       # number of ReadReq miss cycles
system.cpu.dcache.ReadReq_miss_latency::total   2328247625                       # number of ReadReq miss cycles
system.cpu.dcache.ReadReq_accesses::.cpu.data     19853449                       # number of ReadReq accesses(hits+misses)
system.cpu.dcache.ReadReq_accesses::total     19853449                       # number of ReadReq accesses(hits+misses)
system.cpu.dcache.ReadReq_miss_rate::.cpu.data     0.001788                       # miss rate for ReadReq accesses
system.cpu.dcache.ReadReq_miss_rate::total     0.001788                       # miss rate for ReadReq accesses
system.cpu.dcache.ReadReq_avg_miss_latency::.cpu.data 65604.768379                       # average ReadReq miss latency
system.cpu.dcache.ReadReq_avg_miss_latency::total 65604.768379                       # average ReadReq miss latency
system.cpu.dcache.ReadReq_mshr_hits::.cpu.data        11455                       # number of ReadReq MSHR hits
system.cpu.dcache.ReadReq_mshr_hits::total        11455                       # number of ReadReq MSHR hits
system.cpu.dcache.ReadReq_mshr_misses::.cpu.data        24034                       # number of ReadReq MSHR misses
system.cpu.dcache.ReadReq_mshr_misses::total        24034                       # number of ReadReq MSHR misses
system.cpu.dcache.ReadReq_mshr_miss_latency::.cpu.data   1607185250                       # number of ReadReq MSHR miss cycles
system.cpu.dcache.ReadReq_mshr_miss_latency::total   1607185250                       # number of ReadReq MSHR miss cycles
system.cpu.dcache.ReadReq_mshr_miss_rate::.cpu.data     0.001211                       # mshr miss rate for ReadReq accesses
system.cpu.dcache.ReadReq_mshr_miss_rate::total     0.001211                       # mshr miss rate for ReadReq accesses
system.cpu.dcache.ReadReq_avg_mshr_miss_latency::.cpu.data 66871.317717                       # average ReadReq mshr miss latency
system.cpu.dcache.ReadReq_avg_mshr_miss_latency::total 66871.317717                       # average ReadReq mshr miss latency
system.cpu.dcache.WriteReq_hits::.cpu.data     14620531                       # number of WriteReq hits
system.cpu.dcache.WriteReq_hits::total       14620531                       # number of WriteReq hits
system.cpu.dcache.WriteReq_misses::.cpu.data        94521                       # number of WriteReq misses
system.cpu.dcache.WriteReq_misses::total        94521                       # number of WriteReq misses
system.cpu.dcache.WriteReq_miss_latency::.cpu.data   5740358249                       # number of WriteReq miss cycles
system.cpu.dcache.WriteReq_miss_latency::total   5740358249                       # number of WriteReq miss cycles
system.cpu.dcache.WriteReq_accesses::.cpu.data     14715052                       # number of WriteReq accesses(hits+misses)
system.cpu.dcache.WriteReq_accesses::total     14715052                       # number of WriteReq accesses(hits+misses)
system.cpu.dcache.WriteReq_miss_rate::.cpu.data     0.006423                       # miss rate for WriteReq accesses
system.cpu.dcache.WriteReq_miss_rate::total     0.006423                       # miss rate for WriteReq accesses
system.cpu.dcache.WriteReq_avg_miss_latency::.cpu.data 60731.035950                       # average WriteReq miss latency
system.cpu.dcache.WriteReq_avg_miss_latency::total 60731.035950                       # average WriteReq miss latency
system.cpu.dcache.WriteReq_mshr_hits::.cpu.data        58476                       # number of WriteReq MSHR hits
system.cpu.dcache.WriteReq_mshr_hits::total        58476                       # number of WriteReq MSHR hits
system.cpu.dcache.WriteReq_mshr_misses::.cpu.data        36045                       # number of WriteReq MSHR misses
system.cpu.dcache.WriteReq_mshr_misses::total        36045                       # number of WriteReq MSHR misses
system.cpu.dcache.WriteReq_mshr_miss_latency::.cpu.data   2196685625                       # number of WriteReq MSHR miss cycles
system.cpu.dcache.WriteReq_mshr_miss_latency::total   2196685625                       # number of WriteReq MSHR miss cycles
system.cpu.dcache.WriteReq_mshr_miss_rate::.cpu.data     0.002450                       # mshr miss rate for WriteReq accesses
system.cpu.dcache.WriteReq_mshr_miss_rate::total     0.002450                       # mshr miss rate for WriteReq accesses
system.cpu.dcache.WriteReq_avg_mshr_miss_latency::.cpu.data 60942.866556                       # average WriteReq mshr miss latency
system.cpu.dcache.WriteReq_avg_mshr_miss_latency::total 60942.866556                       # average WriteReq mshr miss latency
system.cpu.dcache.SoftPFReq_hits::.cpu.data         3373                       # number of SoftPFReq hits
system.cpu.dcache.SoftPFReq_hits::total          3373                       # number of SoftPFReq hits
system.cpu.dcache.SoftPFReq_misses::.cpu.data           40                       # number of SoftPFReq misses
system.cpu.dcache.SoftPFReq_misses::total           40                       # number of SoftPFReq misses
system.cpu.dcache.SoftPFReq_accesses::.cpu.data         3413                       # number of SoftPFReq accesses(hits+misses)
system.cpu.dcache.SoftPFReq_accesses::total         3413                       # number of SoftPFReq accesses(hits+misses)
system.cpu.dcache.SoftPFReq_miss_rate::.cpu.data     0.011720                       # miss rate for SoftPFReq accesses
system.cpu.dcache.SoftPFReq_miss_rate::total     0.011720                       # miss rate for SoftPFReq accesses
system.cpu.dcache.SoftPFReq_mshr_misses::.cpu.data           37                       # number of SoftPFReq MSHR misses
system.cpu.dcache.SoftPFReq_mshr_misses::total           37                       # number of SoftPFReq MSHR misses
system.cpu.dcache.SoftPFReq_mshr_miss_latency::.cpu.data      2651500                       # number of SoftPFReq MSHR miss cycles
system.cpu.dcache.SoftPFReq_mshr_miss_latency::total      2651500                       # number of SoftPFReq MSHR miss cycles
system.cpu.dcache.SoftPFReq_mshr_miss_rate::.cpu.data     0.010841                       # mshr miss rate for SoftPFReq accesses
system.cpu.dcache.SoftPFReq_mshr_miss_rate::total     0.010841                       # mshr miss rate for SoftPFReq accesses
system.cpu.dcache.SoftPFReq_avg_mshr_miss_latency::.cpu.data 71662.162162                       # average SoftPFReq mshr miss latency
system.cpu.dcache.SoftPFReq_avg_mshr_miss_latency::total 71662.162162                       # average SoftPFReq mshr miss latency
system.cpu.dcache.LoadLockedReq_hits::.cpu.data        90370                       # number of LoadLockedReq hits
system.cpu.dcache.LoadLockedReq_hits::total        90370                       # number of LoadLockedReq hits
system.cpu.dcache.LoadLockedReq_misses::.cpu.data            4                       # number of LoadLockedReq misses
system.cpu.dcache.LoadLockedReq_misses::total            4                       # number of LoadLockedReq misses
system.cpu.dcache.LoadLockedReq_miss_latency::.cpu.data       253375                       # number of LoadLockedReq miss cycles
system.cpu.dcache.LoadLockedReq_miss_latency::total       253375                       # number of LoadLockedReq miss cycles
system.cpu.dcache.LoadLockedReq_accesses::.cpu.data        90374                       # number of LoadLockedReq accesses(hits+misses)
system.cpu.dcache.LoadLockedReq_accesses::total        90374                       # number of LoadLockedReq accesses(hits+misses)
system.cpu.dcache.LoadLockedReq_miss_rate::.cpu.data     0.000044                       # miss rate for LoadLockedReq accesses
system.cpu.dcache.LoadLockedReq_miss_rate::total     0.000044                       # miss rate for LoadLockedReq accesses
system.cpu.dcache.LoadLockedReq_avg_miss_latency::.cpu.data 63343.750000                       # average LoadLockedReq miss latency
system.cpu.dcache.LoadLockedReq_avg_miss_latency::total 63343.750000                       # average LoadLockedReq miss latency
system.cpu.dcache.LoadLockedReq_mshr_hits::.cpu.data            2                       # number of LoadLockedReq MSHR hits
system.cpu.dcache.LoadLockedReq_mshr_hits::total            2                       # number of LoadLockedReq MSHR hits
system.cpu.dcache.LoadLockedReq_mshr_misses::.cpu.data            2                       # number of LoadLockedReq MSHR misses
system.cpu.dcache.LoadLockedReq_mshr_misses::total            2                       # number of LoadLockedReq MSHR misses
system.cpu.dcache.LoadLockedReq_mshr_miss_latency::.cpu.data       115000                       # number of LoadLockedReq MSHR miss cycles
system.cpu.dcache.LoadLockedReq_mshr_miss_latency::total       115000                       # number of LoadLockedReq MSHR miss cycles
system.cpu.dcache.LoadLockedReq_mshr_miss_rate::.cpu.data     0.000022                       # mshr miss rate for LoadLockedReq accesses
system.cpu.dcache.LoadLockedReq_mshr_miss_rate::total     0.000022                       # mshr miss rate for LoadLockedReq accesses
system.cpu.dcache.LoadLockedReq_avg_mshr_miss_latency::.cpu.data        57500                       # average LoadLockedReq mshr miss latency
system.cpu.dcache.LoadLockedReq_avg_mshr_miss_latency::total        57500                       # average LoadLockedReq mshr miss latency
system.cpu.dcache.StoreCondReq_hits::.cpu.data        90057                       # number of StoreCondReq hits
system.cpu.dcache.StoreCondReq_hits::total        90057                       # number of StoreCondReq hits
system.cpu.dcache.StoreCondReq_accesses::.cpu.data        90057                       # number of StoreCondReq accesses(hits+misses)
system.cpu.dcache.StoreCondReq_accesses::total        90057                       # number of StoreCondReq accesses(hits+misses)
system.cpu.dcache.power_state.pwrStateResidencyTicks::UNDEFINED  36931438125                       # Cumulative time (in ticks) in various power states
system.cpu.dcache.tags.tagsinuse           511.221888                       # Cycle average of tags in use
system.cpu.dcache.tags.total_refs            34682409                       # Total number of references to valid blocks.
system.cpu.dcache.tags.sampled_refs             60118                       # Sample count of references to valid blocks.
system.cpu.dcache.tags.avg_refs            576.905569                       # Average number of references to valid blocks.
system.cpu.dcache.tags.warmup_cycle            148000                       # Cycle when the warmup percentage was hit.
system.cpu.dcache.tags.occ_blocks::.cpu.data   511.221888                       # Average occupied blocks per requestor
system.cpu.dcache.tags.occ_percent::.cpu.data     0.998480                       # Average percentage of cache occupancy
system.cpu.dcache.tags.occ_percent::total     0.998480                       # Average percentage of cache occupancy
system.cpu.dcache.tags.occ_task_id_blocks::1024          512                       # Occupied blocks per task id
system.cpu.dcache.tags.age_task_id_blocks_1024::0           19                       # Occupied blocks per task id
system.cpu.dcache.tags.age_task_id_blocks_1024::1          151                       # Occupied blocks per task id
system.cpu.dcache.tags.age_task_id_blocks_1024::2          302                       # Occupied blocks per task id
system.cpu.dcache.tags.age_task_id_blocks_1024::3            6                       # Occupied blocks per task id
system.cpu.dcache.tags.age_task_id_blocks_1024::4           34                       # Occupied blocks per task id
system.cpu.dcache.tags.occ_task_id_percent::1024            1                       # Percentage of cache occupancy per task id
system.cpu.dcache.tags.tag_accesses         139069498                       # Number of tag accesses
system.cpu.dcache.tags.data_accesses        139069498                       # Number of data accesses
system.cpu.dcache.tags.power_state.pwrStateResidencyTicks::UNDEFINED  36931438125                       # Cumulative time (in ticks) in various power states
system.cpu.decode.idleCycles                  3314066                       # Number of cycles decode is idle
system.cpu.decode.blockedCycles              10681888                       # Number of cycles decode is blocked
system.cpu.decode.runCycles                  42210672                       # Number of cycles decode is running
system.cpu.decode.unblockCycles               2705470                       # Number of cycles decode is unblocking
system.cpu.decode.squashCycles                 158821                       # Number of cycles decode is squashing
system.cpu.decode.branchResolved              9016352                       # Number of times decode resolved a  branch
system.cpu.decode.branchMispred                155175                       # Number of times decode detected a branch misprediction
system.cpu.decode.decodedInsts              113160547                       # Number of instructions handled by decode
system.cpu.decode.squashedInsts               1988464                       # Number of squashed instructions handled by decode
system.cpu.dtb.instHits                             0                       # ITB inst hits
system.cpu.dtb.instMisses                           0                       # ITB inst misses
system.cpu.dtb.readHits                             0                       # DTB read hits
system.cpu.dtb.readMisses                           0                       # DTB read misses
system.cpu.dtb.writeHits                            0                       # DTB write hits
system.cpu.dtb.writeMisses                          0                       # DTB write misses
system.cpu.dtb.inserts                              0                       # Number of times an entry is inserted into the TLB
system.cpu.dtb.flushTlb                             0                       # Number of times complete TLB was flushed
system.cpu.dtb.flushTlbMva                          0                       # Number of times TLB was flushed by MVA
system.cpu.dtb.flushTlbMvaAsid                      0                       # Number of times TLB was flushed by MVA & ASID
system.cpu.dtb.flushTlbAsid                         0                       # Number of times TLB was flushed by ASID
system.cpu.dtb.flushedEntries                       0                       # Number of entries that have been flushed from TLB
system.cpu.dtb.alignFaults                          0                       # Number of TLB faults due to alignment restrictions
system.cpu.dtb.prefetchFaults                       0                       # Number of TLB faults due to prefetch
system.cpu.dtb.domainFaults                         0                       # Number of TLB faults due to domain restrictions
system.cpu.dtb.permsFaults                          0                       # Number of TLB faults due to permissions restrictions
system.cpu.dtb.readAccesses                         0                       # DTB read accesses
system.cpu.dtb.writeAccesses                        0                       # DTB write accesses
system.cpu.dtb.instAccesses                         0                       # ITB inst accesses
system.cpu.dtb.hits                                 0                       # Total TLB (inst and data) hits
system.cpu.dtb.misses                               0                       # Total TLB (inst and data) misses
system.cpu.dtb.accesses                             0                       # Total TLB (inst and data) accesses
system.cpu.dtb.stage2_mmu.stage2_tlb.instHits            0                       # ITB inst hits
system.cpu.dtb.stage2_mmu.stage2_tlb.instMisses            0                       # ITB inst misses
system.cpu.dtb.stage2_mmu.stage2_tlb.readHits            0                       # DTB read hits
system.cpu.dtb.stage2_mmu.stage2_tlb.readMisses            0                       # DTB read misses
system.cpu.dtb.stage2_mmu.stage2_tlb.writeHits            0                       # DTB write hits
system.cpu.dtb.stage2_mmu.stage2_tlb.writeMisses            0                       # DTB write misses
system.cpu.dtb.stage2_mmu.stage2_tlb.inserts            0                       # Number of times an entry is inserted into the TLB
system.cpu.dtb.stage2_mmu.stage2_tlb.flushTlb            0                       # Number of times complete TLB was flushed
system.cpu.dtb.stage2_mmu.stage2_tlb.flushTlbMva            0                       # Number of times TLB was flushed by MVA
system.cpu.dtb.stage2_mmu.stage2_tlb.flushTlbMvaAsid            0                       # Number of times TLB was flushed by MVA & ASID
system.cpu.dtb.stage2_mmu.stage2_tlb.flushTlbAsid            0                       # Number of times TLB was flushed by ASID
system.cpu.dtb.stage2_mmu.stage2_tlb.flushedEntries            0                       # Number of entries that have been flushed from TLB
system.cpu.dtb.stage2_mmu.stage2_tlb.alignFaults            0                       # Number of TLB faults due to alignment restrictions
system.cpu.dtb.stage2_mmu.stage2_tlb.prefetchFaults            0                       # Number of TLB faults due to prefetch
system.cpu.dtb.stage2_mmu.stage2_tlb.domainFaults            0                       # Number of TLB faults due to domain restrictions
system.cpu.dtb.stage2_mmu.stage2_tlb.permsFaults            0                       # Number of TLB faults due to permissions restrictions
system.cpu.dtb.stage2_mmu.stage2_tlb.readAccesses            0                       # DTB read accesses
system.cpu.dtb.stage2_mmu.stage2_tlb.writeAccesses            0                       # DTB write accesses
system.cpu.dtb.stage2_mmu.stage2_tlb.instAccesses            0                       # ITB inst accesses
system.cpu.dtb.stage2_mmu.stage2_tlb.hits            0                       # Total TLB (inst and data) hits
system.cpu.dtb.stage2_mmu.stage2_tlb.misses            0                       # Total TLB (inst and data) misses
system.cpu.dtb.stage2_mmu.stage2_tlb.accesses            0                       # Total TLB (inst and data) accesses
system.cpu.dtb.stage2_mmu.stage2_tlb.walker.walks            0                       # Table walker walks requested
system.cpu.dtb.stage2_mmu.stage2_tlb.walker.requestOrigin_Requested::Data            0                       # Table walker requests started/completed, data/inst
system.cpu.dtb.stage2_mmu.stage2_tlb.walker.requestOrigin_Requested::Inst            0                       # Table walker requests started/completed, data/inst
system.cpu.dtb.stage2_mmu.stage2_tlb.walker.requestOrigin_Requested::total            0                       # Table walker requests started/completed, data/inst
system.cpu.dtb.stage2_mmu.stage2_tlb.walker.requestOrigin_Completed::Data            0                       # Table walker requests started/completed, data/inst
system.cpu.dtb.stage2_mmu.stage2_tlb.walker.requestOrigin_Completed::Inst            0                       # Table walker requests started/completed, data/inst
system.cpu.dtb.stage2_mmu.stage2_tlb.walker.requestOrigin_Completed::total            0                       # Table walker requests started/completed, data/inst
system.cpu.dtb.stage2_mmu.stage2_tlb.walker.requestOrigin::total            0                       # Table walker requests started/completed, data/inst
system.cpu.dtb.stage2_mmu.stage2_tlb.walker.power_state.pwrStateResidencyTicks::UNDEFINED  36931438125                       # Cumulative time (in ticks) in various power states
system.cpu.dtb.walker.walks                         0                       # Table walker walks requested
system.cpu.dtb.walker.requestOrigin_Requested::Data            0                       # Table walker requests started/completed, data/inst
system.cpu.dtb.walker.requestOrigin_Requested::Inst            0                       # Table walker requests started/completed, data/inst
system.cpu.dtb.walker.requestOrigin_Requested::total            0                       # Table walker requests started/completed, data/inst
system.cpu.dtb.walker.requestOrigin_Completed::Data            0                       # Table walker requests started/completed, data/inst
system.cpu.dtb.walker.requestOrigin_Completed::Inst            0                       # Table walker requests started/completed, data/inst
system.cpu.dtb.walker.requestOrigin_Completed::total            0                       # Table walker requests started/completed, data/inst
system.cpu.dtb.walker.requestOrigin::total            0                       # Table walker requests started/completed, data/inst
system.cpu.dtb.walker.power_state.pwrStateResidencyTicks::UNDEFINED  36931438125                       # Cumulative time (in ticks) in various power states
system.cpu.dtb_walker_cache.blocked_cycles::no_mshrs            0                       # number of cycles access was blocked
system.cpu.dtb_walker_cache.blocked_cycles::no_targets            0                       # number of cycles access was blocked
system.cpu.dtb_walker_cache.blocked::no_mshrs            0                       # number of cycles access was blocked
system.cpu.dtb_walker_cache.blocked::no_targets            0                       # number of cycles access was blocked
system.cpu.dtb_walker_cache.avg_blocked_cycles::no_mshrs          nan                       # average number of cycles each access was blocked
system.cpu.dtb_walker_cache.avg_blocked_cycles::no_targets          nan                       # average number of cycles each access was blocked
system.cpu.dtb_walker_cache.replacements            0                       # number of replacements
system.cpu.dtb_walker_cache.power_state.pwrStateResidencyTicks::UNDEFINED  36931438125                       # Cumulative time (in ticks) in various power states
system.cpu.dtb_walker_cache.tags.tagsinuse            0                       # Cycle average of tags in use
system.cpu.dtb_walker_cache.tags.total_refs            0                       # Total number of references to valid blocks.
system.cpu.dtb_walker_cache.tags.sampled_refs            0                       # Sample count of references to valid blocks.
system.cpu.dtb_walker_cache.tags.avg_refs          nan                       # Average number of references to valid blocks.
system.cpu.dtb_walker_cache.tags.warmup_cycle            0                       # Cycle when the warmup percentage was hit.
system.cpu.dtb_walker_cache.tags.tag_accesses            0                       # Number of tag accesses
system.cpu.dtb_walker_cache.tags.data_accesses            0                       # Number of data accesses
system.cpu.dtb_walker_cache.tags.power_state.pwrStateResidencyTicks::UNDEFINED  36931438125                       # Cumulative time (in ticks) in various power states
system.cpu.fetch.icacheStallCycles             318045                       # Number of cycles fetch is stalled on an Icache miss
system.cpu.fetch.insts                      108411748                       # Number of instructions fetch has processed
system.cpu.fetch.branches                    22989014                       # Number of branches that fetch encountered
system.cpu.fetch.predictedBranches           11006843                       # Number of branches that fetch has predicted taken
system.cpu.fetch.cycles                      58437458                       # Number of cycles fetch has run and was not squashing or blocked
system.cpu.fetch.squashCycles                  626770                       # Number of cycles fetch has spent squashing
system.cpu.fetch.miscStallCycles                   97                       # Number of cycles fetch has spent waiting on interrupts,or bad addresses, or out of MSHRs
system.cpu.fetch.pendingTrapStallCycles          1609                       # Number of stall cycles due to pending traps
system.cpu.fetch.icacheWaitRetryStallCycles          323                       # Number of stall cycles due to full MSHR
system.cpu.fetch.cacheLines                  26988896                       # Number of cache lines fetched
system.cpu.fetch.icacheSquashes                   246                       # Number of outstanding Icache misses that were squashed
system.cpu.fetch.nisnDist::samples           59070917                       # Number of instructions fetched each cycle (Total)
system.cpu.fetch.nisnDist::mean              2.014217                       # Number of instructions fetched each cycle (Total)
system.cpu.fetch.nisnDist::stdev             1.141433                       # Number of instructions fetched each cycle (Total)
system.cpu.fetch.nisnDist::underflows               0      0.00%      0.00% # Number of instructions fetched each cycle (Total)
system.cpu.fetch.nisnDist::0                  9610623     16.27%     16.27% # Number of instructions fetched each cycle (Total)
system.cpu.fetch.nisnDist::1                  9235005     15.63%     31.90% # Number of instructions fetched each cycle (Total)
system.cpu.fetch.nisnDist::2                 10929223     18.50%     50.41% # Number of instructions fetched each cycle (Total)
system.cpu.fetch.nisnDist::3                 29296066     49.59%    100.00% # Number of instructions fetched each cycle (Total)
system.cpu.fetch.nisnDist::overflows                0      0.00%    100.00% # Number of instructions fetched each cycle (Total)
system.cpu.fetch.nisnDist::min_value                0                       # Number of instructions fetched each cycle (Total)
system.cpu.fetch.nisnDist::max_value                3                       # Number of instructions fetched each cycle (Total)
system.cpu.fetch.nisnDist::total             59070917                       # Number of instructions fetched each cycle (Total)
system.cpu.fetch.branchRate                  0.389049                       # Number of branch fetches per cycle
system.cpu.fetch.rate                        1.834679                       # Number of inst fetches per cycle
system.cpu.icache.demand_hits::.cpu.inst     26988421                       # number of demand (read+write) hits
system.cpu.icache.demand_hits::total         26988421                       # number of demand (read+write) hits
system.cpu.icache.overall_hits::.cpu.inst     26988421                       # number of overall hits
system.cpu.icache.overall_hits::total        26988421                       # number of overall hits
system.cpu.icache.demand_misses::.cpu.inst          473                       # number of demand (read+write) misses
system.cpu.icache.demand_misses::total            473                       # number of demand (read+write) misses
system.cpu.icache.overall_misses::.cpu.inst          473                       # number of overall misses
system.cpu.icache.overall_misses::total           473                       # number of overall misses
system.cpu.icache.demand_miss_latency::.cpu.inst     26706369                       # number of demand (read+write) miss cycles
system.cpu.icache.demand_miss_latency::total     26706369                       # number of demand (read+write) miss cycles
system.cpu.icache.overall_miss_latency::.cpu.inst     26706369                       # number of overall miss cycles
system.cpu.icache.overall_miss_latency::total     26706369                       # number of overall miss cycles
system.cpu.icache.demand_accesses::.cpu.inst     26988894                       # number of demand (read+write) accesses
system.cpu.icache.demand_accesses::total     26988894                       # number of demand (read+write) accesses
system.cpu.icache.overall_accesses::.cpu.inst     26988894                       # number of overall (read+write) accesses
system.cpu.icache.overall_accesses::total     26988894                       # number of overall (read+write) accesses
system.cpu.icache.demand_miss_rate::.cpu.inst     0.000018                       # miss rate for demand accesses
system.cpu.icache.demand_miss_rate::total     0.000018                       # miss rate for demand accesses
system.cpu.icache.overall_miss_rate::.cpu.inst     0.000018                       # miss rate for overall accesses
system.cpu.icache.overall_miss_rate::total     0.000018                       # miss rate for overall accesses
system.cpu.icache.demand_avg_miss_latency::.cpu.inst 56461.668076                       # average overall miss latency
system.cpu.icache.demand_avg_miss_latency::total 56461.668076                       # average overall miss latency
system.cpu.icache.overall_avg_miss_latency::.cpu.inst 56461.668076                       # average overall miss latency
system.cpu.icache.overall_avg_miss_latency::total 56461.668076                       # average overall miss latency
system.cpu.icache.blocked_cycles::no_mshrs         7374                       # number of cycles access was blocked
system.cpu.icache.blocked_cycles::no_targets            0                       # number of cycles access was blocked
system.cpu.icache.blocked::no_mshrs               103                       # number of cycles access was blocked
system.cpu.icache.blocked::no_targets               0                       # number of cycles access was blocked
system.cpu.icache.avg_blocked_cycles::no_mshrs    71.592233                       # average number of cycles each access was blocked
system.cpu.icache.avg_blocked_cycles::no_targets          nan                       # average number of cycles each access was blocked
system.cpu.icache.writebacks::.writebacks           36                       # number of writebacks
system.cpu.icache.writebacks::total                36                       # number of writebacks
system.cpu.icache.demand_mshr_hits::.cpu.inst           76                       # number of demand (read+write) MSHR hits
system.cpu.icache.demand_mshr_hits::total           76                       # number of demand (read+write) MSHR hits
system.cpu.icache.overall_mshr_hits::.cpu.inst           76                       # number of overall MSHR hits
system.cpu.icache.overall_mshr_hits::total           76                       # number of overall MSHR hits
system.cpu.icache.demand_mshr_misses::.cpu.inst          397                       # number of demand (read+write) MSHR misses
system.cpu.icache.demand_mshr_misses::total          397                       # number of demand (read+write) MSHR misses
system.cpu.icache.overall_mshr_misses::.cpu.inst          397                       # number of overall MSHR misses
system.cpu.icache.overall_mshr_misses::total          397                       # number of overall MSHR misses
system.cpu.icache.demand_mshr_miss_latency::.cpu.inst     23430245                       # number of demand (read+write) MSHR miss cycles
system.cpu.icache.demand_mshr_miss_latency::total     23430245                       # number of demand (read+write) MSHR miss cycles
system.cpu.icache.overall_mshr_miss_latency::.cpu.inst     23430245                       # number of overall MSHR miss cycles
system.cpu.icache.overall_mshr_miss_latency::total     23430245                       # number of overall MSHR miss cycles
system.cpu.icache.demand_mshr_miss_rate::.cpu.inst     0.000015                       # mshr miss rate for demand accesses
system.cpu.icache.demand_mshr_miss_rate::total     0.000015                       # mshr miss rate for demand accesses
system.cpu.icache.overall_mshr_miss_rate::.cpu.inst     0.000015                       # mshr miss rate for overall accesses
system.cpu.icache.overall_mshr_miss_rate::total     0.000015                       # mshr miss rate for overall accesses
system.cpu.icache.demand_avg_mshr_miss_latency::.cpu.inst 59018.249370                       # average overall mshr miss latency
system.cpu.icache.demand_avg_mshr_miss_latency::total 59018.249370                       # average overall mshr miss latency
system.cpu.icache.overall_avg_mshr_miss_latency::.cpu.inst 59018.249370                       # average overall mshr miss latency
system.cpu.icache.overall_avg_mshr_miss_latency::total 59018.249370                       # average overall mshr miss latency
system.cpu.icache.replacements                     36                       # number of replacements
system.cpu.icache.ReadReq_hits::.cpu.inst     26988421                       # number of ReadReq hits
system.cpu.icache.ReadReq_hits::total        26988421                       # number of ReadReq hits
system.cpu.icache.ReadReq_misses::.cpu.inst          473                       # number of ReadReq misses
system.cpu.icache.ReadReq_misses::total           473                       # number of ReadReq misses
system.cpu.icache.ReadReq_miss_latency::.cpu.inst     26706369                       # number of ReadReq miss cycles
system.cpu.icache.ReadReq_miss_latency::total     26706369                       # number of ReadReq miss cycles
system.cpu.icache.ReadReq_accesses::.cpu.inst     26988894                       # number of ReadReq accesses(hits+misses)
system.cpu.icache.ReadReq_accesses::total     26988894                       # number of ReadReq accesses(hits+misses)
system.cpu.icache.ReadReq_miss_rate::.cpu.inst     0.000018                       # miss rate for ReadReq accesses
system.cpu.icache.ReadReq_miss_rate::total     0.000018                       # miss rate for ReadReq accesses
system.cpu.icache.ReadReq_avg_miss_latency::.cpu.inst 56461.668076                       # average ReadReq miss latency
system.cpu.icache.ReadReq_avg_miss_latency::total 56461.668076                       # average ReadReq miss latency
system.cpu.icache.ReadReq_mshr_hits::.cpu.inst           76                       # number of ReadReq MSHR hits
system.cpu.icache.ReadReq_mshr_hits::total           76                       # number of ReadReq MSHR hits
system.cpu.icache.ReadReq_mshr_misses::.cpu.inst          397                       # number of ReadReq MSHR misses
system.cpu.icache.ReadReq_mshr_misses::total          397                       # number of ReadReq MSHR misses
system.cpu.icache.ReadReq_mshr_miss_latency::.cpu.inst     23430245                       # number of ReadReq MSHR miss cycles
system.cpu.icache.ReadReq_mshr_miss_latency::total     23430245                       # number of ReadReq MSHR miss cycles
system.cpu.icache.ReadReq_mshr_miss_rate::.cpu.inst     0.000015                       # mshr miss rate for ReadReq accesses
system.cpu.icache.ReadReq_mshr_miss_rate::total     0.000015                       # mshr miss rate for ReadReq accesses
system.cpu.icache.ReadReq_avg_mshr_miss_latency::.cpu.inst 59018.249370                       # average ReadReq mshr miss latency
system.cpu.icache.ReadReq_avg_mshr_miss_latency::total 59018.249370                       # average ReadReq mshr miss latency
system.cpu.icache.power_state.pwrStateResidencyTicks::UNDEFINED  36931438125                       # Cumulative time (in ticks) in various power states
system.cpu.icache.tags.tagsinuse           360.229791                       # Cycle average of tags in use
system.cpu.icache.tags.total_refs            26988818                       # Total number of references to valid blocks.
system.cpu.icache.tags.sampled_refs               397                       # Sample count of references to valid blocks.
system.cpu.icache.tags.avg_refs          67981.909320                       # Average number of references to valid blocks.
system.cpu.icache.tags.warmup_cycle             77000                       # Cycle when the warmup percentage was hit.
system.cpu.icache.tags.occ_blocks::.cpu.inst   360.229791                       # Average occupied blocks per requestor
system.cpu.icache.tags.occ_percent::.cpu.inst     0.703574                       # Average percentage of cache occupancy
system.cpu.icache.tags.occ_percent::total     0.703574                       # Average percentage of cache occupancy
system.cpu.icache.tags.occ_task_id_blocks::1024          361                       # Occupied blocks per task id
system.cpu.icache.tags.age_task_id_blocks_1024::4          361                       # Occupied blocks per task id
system.cpu.icache.tags.occ_task_id_percent::1024     0.705078                       # Percentage of cache occupancy per task id
system.cpu.icache.tags.tag_accesses         107955973                       # Number of tag accesses
system.cpu.icache.tags.data_accesses        107955973                       # Number of data accesses
system.cpu.icache.tags.power_state.pwrStateResidencyTicks::UNDEFINED  36931438125                       # Cumulative time (in ticks) in various power states
system.cpu.itb.instHits                             0                       # ITB inst hits
system.cpu.itb.instMisses                           0                       # ITB inst misses
[...]
system.mem_ctrls.requestorReadTotalLat::.cpu.data   1882534375                       # Per-requestor read total memory access latency
system.mem_ctrls.requestorWriteTotalLat::.writebacks 880629249750                       # Per-requestor write total memory access latency
system.mem_ctrls.requestorReadAvgLat::.cpu.inst     27664.04                       # Per-requestor read average memory access latency
system.mem_ctrls.requestorReadAvgLat::.cpu.data     31313.99                       # Per-requestor read average memory access latency
system.mem_ctrls.requestorWriteAvgLat::.writebacks  14785830.01                       # Per-requestor write average memory access latency
system.mem_ctrls.dram.bytes_read::.cpu.inst        25408                       # Number of bytes read from this memory
system.mem_ctrls.dram.bytes_read::.cpu.data      3847552                       # Number of bytes read from this memory
system.mem_ctrls.dram.bytes_read::total       3872960                       # Number of bytes read from this memory
system.mem_ctrls.dram.bytes_inst_read::.cpu.inst        25408                       # Number of instructions bytes read from this memory
system.mem_ctrls.dram.bytes_inst_read::total        25408                       # Number of instructions bytes read from this memory
system.mem_ctrls.dram.bytes_written::.writebacks      3367040                       # Number of bytes written to this memory
system.mem_ctrls.dram.bytes_written::total      3367040                       # Number of bytes written to this memory
system.mem_ctrls.dram.num_reads::.cpu.inst          397                       # Number of read requests responded to by this memory
system.mem_ctrls.dram.num_reads::.cpu.data        60118                       # Number of read requests responded to by this memory
system.mem_ctrls.dram.num_reads::total          60515                       # Number of read requests responded to by this memory
system.mem_ctrls.dram.num_writes::.writebacks        52610                       # Number of write requests responded to by this memory
system.mem_ctrls.dram.num_writes::total         52610                       # Number of write requests responded to by this memory
system.mem_ctrls.dram.bw_read::.cpu.inst       687978                       # Total read bandwidth from this memory (bytes/s)
system.mem_ctrls.dram.bw_read::.cpu.data    104180942                       # Total read bandwidth from this memory (bytes/s)
system.mem_ctrls.dram.bw_read::total        104868919                       # Total read bandwidth from this memory (bytes/s)
system.mem_ctrls.dram.bw_inst_read::.cpu.inst       687978                       # Instruction read bandwidth from this memory (bytes/s)
system.mem_ctrls.dram.bw_inst_read::total       687978                       # Instruction read bandwidth from this memory (bytes/s)
system.mem_ctrls.dram.bw_write::.writebacks     91170021                       # Write bandwidth from this memory (bytes/s)
system.mem_ctrls.dram.bw_write::total        91170021                       # Write bandwidth from this memory (bytes/s)
system.mem_ctrls.dram.bw_total::.writebacks     91170021                       # Total bandwidth to/from this memory (bytes/s)
system.mem_ctrls.dram.bw_total::.cpu.inst       687978                       # Total bandwidth to/from this memory (bytes/s)
system.mem_ctrls.dram.bw_total::.cpu.data    104180942                       # Total bandwidth to/from this memory (bytes/s)
system.mem_ctrls.dram.bw_total::total       196038940                       # Total bandwidth to/from this memory (bytes/s)
system.mem_ctrls.dram.readBursts                59596                       # Number of DRAM read bursts
system.mem_ctrls.dram.writeBursts               59526                       # Number of DRAM write bursts
system.mem_ctrls.dram.perBankRdBursts::0         3267                       # Per bank write bursts
system.mem_ctrls.dram.perBankRdBursts::1         3344                       # Per bank write bursts
system.mem_ctrls.dram.perBankRdBursts::2         3307                       # Per bank write bursts
system.mem_ctrls.dram.perBankRdBursts::3         3452                       # Per bank write bursts
system.mem_ctrls.dram.perBankRdBursts::4         6639                       # Per bank write bursts
system.mem_ctrls.dram.perBankRdBursts::5         6445                       # Per bank write bursts
system.mem_ctrls.dram.perBankRdBursts::6         3327                       # Per bank write bursts
system.mem_ctrls.dram.perBankRdBursts::7         3328                       # Per bank write bursts
system.mem_ctrls.dram.perBankRdBursts::8         3438                       # Per bank write bursts
system.mem_ctrls.dram.perBankRdBursts::9         3301                       # Per bank write bursts
system.mem_ctrls.dram.perBankRdBursts::10         3369                       # Per bank write bursts
system.mem_ctrls.dram.perBankRdBursts::11         3428                       # Per bank write bursts
system.mem_ctrls.dram.perBankRdBursts::12         3152                       # Per bank write bursts
system.mem_ctrls.dram.perBankRdBursts::13         3353                       # Per bank write bursts
system.mem_ctrls.dram.perBankRdBursts::14         3171                       # Per bank write bursts
system.mem_ctrls.dram.perBankRdBursts::15         3275                       # Per bank write bursts
system.mem_ctrls.dram.perBankWrBursts::0         3272                       # Per bank write bursts
system.mem_ctrls.dram.perBankWrBursts::1         3370                       # Per bank write bursts
system.mem_ctrls.dram.perBankWrBursts::2         3265                       # Per bank write bursts
system.mem_ctrls.dram.perBankWrBursts::3         3466                       # Per bank write bursts
system.mem_ctrls.dram.perBankWrBursts::4         6643                       # Per bank write bursts
system.mem_ctrls.dram.perBankWrBursts::5         6415                       # Per bank write bursts
system.mem_ctrls.dram.perBankWrBursts::6         3241                       # Per bank write bursts
system.mem_ctrls.dram.perBankWrBursts::7         3354                       # Per bank write bursts
system.mem_ctrls.dram.perBankWrBursts::8         3469                       # Per bank write bursts
system.mem_ctrls.dram.perBankWrBursts::9         3250                       # Per bank write bursts
system.mem_ctrls.dram.perBankWrBursts::10         3358                       # Per bank write bursts
system.mem_ctrls.dram.perBankWrBursts::11         3433                       # Per bank write bursts
system.mem_ctrls.dram.perBankWrBursts::12         3161                       # Per bank write bursts
system.mem_ctrls.dram.perBankWrBursts::13         3369                       # Per bank write bursts
system.mem_ctrls.dram.perBankWrBursts::14         3176                       # Per bank write bursts
system.mem_ctrls.dram.perBankWrBursts::15         3284                       # Per bank write bursts
system.mem_ctrls.dram.totQLat               776092000                       # Total ticks spent queuing
system.mem_ctrls.dram.totBusLat             297980000                       # Total ticks spent in databus transfers
system.mem_ctrls.dram.totMemAccLat         1893517000                       # Total ticks spent from burst creation until serviced by the DRAM
system.mem_ctrls.dram.avgQLat                13022.55                       # Average queueing delay per DRAM burst
system.mem_ctrls.dram.avgBusLat               5000.00                       # Average bus latency per DRAM burst
system.mem_ctrls.dram.avgMemAccLat           31772.55                       # Average memory access latency per DRAM burst
system.mem_ctrls.dram.readRowHits               34690                       # Number of row buffer hits during reads
system.mem_ctrls.dram.writeRowHits              40392                       # Number of row buffer hits during writes
system.mem_ctrls.dram.readRowHitRate            58.21                       # Row buffer hit rate for reads
system.mem_ctrls.dram.writeRowHitRate           67.86                       # Row buffer hit rate for writes
system.mem_ctrls.dram.bytesPerActivate::samples        44038                       # Bytes accessed per row activation
system.mem_ctrls.dram.bytesPerActivate::mean   173.115945                       # Bytes accessed per row activation
system.mem_ctrls.dram.bytesPerActivate::gmean   112.230688                       # Bytes accessed per row activation
system.mem_ctrls.dram.bytesPerActivate::stdev   215.155852                       # Bytes accessed per row activation
system.mem_ctrls.dram.bytesPerActivate::0-127        26623     60.45%     60.45% # Bytes accessed per row activation
system.mem_ctrls.dram.bytesPerActivate::128-255         7834     17.79%     78.24% # Bytes accessed per row activation
system.mem_ctrls.dram.bytesPerActivate::256-383         4748     10.78%     89.03% # Bytes accessed per row activation
system.mem_ctrls.dram.bytesPerActivate::384-511         1119      2.54%     91.57% # Bytes accessed per row activation
system.mem_ctrls.dram.bytesPerActivate::512-639         1019      2.31%     93.88% # Bytes accessed per row activation
system.mem_ctrls.dram.bytesPerActivate::640-767          748      1.70%     95.58% # Bytes accessed per row activation
system.mem_ctrls.dram.bytesPerActivate::768-895          362      0.82%     96.40% # Bytes accessed per row activation
system.mem_ctrls.dram.bytesPerActivate::896-1023          273      0.62%     97.02% # Bytes accessed per row activation
system.mem_ctrls.dram.bytesPerActivate::1024-1151         1312      2.98%    100.00% # Bytes accessed per row activation
system.mem_ctrls.dram.bytesPerActivate::total        44038                       # Bytes accessed per row activation
system.mem_ctrls.dram.bytesRead               3814144                       # Total number of bytes read from DRAM
system.mem_ctrls.dram.bytesWritten            3809664                       # Total number of bytes written to DRAM
system.mem_ctrls.dram.avgRdBW              103.276346                       # Average DRAM read bandwidth in MiBytes/s
system.mem_ctrls.dram.avgWrBW              103.155041                       # Average DRAM write bandwidth in MiBytes/s
system.mem_ctrls.dram.peakBW                 12800.00                       # Theoretical peak bandwidth in MiByte/s
system.mem_ctrls.dram.busUtil                    1.61                       # Data bus utilization in percentage
system.mem_ctrls.dram.busUtilRead                0.81                       # Data bus utilization in percentage for reads
system.mem_ctrls.dram.busUtilWrite               0.81                       # Data bus utilization in percentage for writes
system.mem_ctrls.dram.pageHitRate               63.03                       # Row buffer hit rate, read and write combined
system.mem_ctrls.dram.power_state.pwrStateResidencyTicks::UNDEFINED  36931438125                       # Cumulative time (in ticks) in various power states
system.mem_ctrls.dram.rank0.actEnergy       180556320                       # Energy for activate commands per rank (pJ)
system.mem_ctrls.dram.rank0.preEnergy        95964165                       # Energy for precharge commands per rank (pJ)
system.mem_ctrls.dram.rank0.readEnergy      236398260                       # Energy for read commands per rank (pJ)
system.mem_ctrls.dram.rank0.writeEnergy     172395720                       # Energy for write commands per rank (pJ)
system.mem_ctrls.dram.rank0.refreshEnergy 2915237520.000000                       # Energy for refresh commands per rank (pJ)
system.mem_ctrls.dram.rank0.actBackEnergy  14328598440                       # Energy for active background per rank (pJ)
system.mem_ctrls.dram.rank0.preBackEnergy   2115484320                       # Energy for precharge background per rank (pJ)
system.mem_ctrls.dram.rank0.actPowerDownEnergy            0                       # Energy for active power-down per rank (pJ)
system.mem_ctrls.dram.rank0.prePowerDownEnergy            0                       # Energy for precharge power-down per rank (pJ)
system.mem_ctrls.dram.rank0.selfRefreshEnergy            0                       # Energy for self refresh per rank (pJ)
system.mem_ctrls.dram.rank0.totalEnergy   20044634745                       # Total energy per rank (pJ)
system.mem_ctrls.dram.rank0.averagePower   542.752618                       # Core power per rank (mW)
system.mem_ctrls.dram.rank0.totalIdleTime            0                       # Total Idle time Per DRAM Rank
system.mem_ctrls.dram.rank0.pwrStateTime::IDLE   5369467375                       # Time in different power states
system.mem_ctrls.dram.rank0.pwrStateTime::REF   1233180000                       # Time in different power states
system.mem_ctrls.dram.rank0.pwrStateTime::SREF            0                       # Time in different power states
system.mem_ctrls.dram.rank0.pwrStateTime::PRE_PDN            0                       # Time in different power states
system.mem_ctrls.dram.rank0.pwrStateTime::ACT  30328790750                       # Time in different power states
system.mem_ctrls.dram.rank0.pwrStateTime::ACT_PDN            0                       # Time in different power states
system.mem_ctrls.dram.rank1.actEnergy       133889280                       # Energy for activate commands per rank (pJ)
system.mem_ctrls.dram.rank1.preEnergy        71160045                       # Energy for precharge commands per rank (pJ)
system.mem_ctrls.dram.rank1.readEnergy      189117180                       # Energy for read commands per rank (pJ)
system.mem_ctrls.dram.rank1.writeEnergy     138330000                       # Energy for write commands per rank (pJ)
system.mem_ctrls.dram.rank1.refreshEnergy 2915237520.000000                       # Energy for refresh commands per rank (pJ)
system.mem_ctrls.dram.rank1.actBackEnergy  12701091690                       # Energy for active background per rank (pJ)
system.mem_ctrls.dram.rank1.preBackEnergy   3486016320                       # Energy for precharge background per rank (pJ)
system.mem_ctrls.dram.rank1.actPowerDownEnergy            0                       # Energy for active power-down per rank (pJ)
system.mem_ctrls.dram.rank1.prePowerDownEnergy            0                       # Energy for precharge power-down per rank (pJ)
system.mem_ctrls.dram.rank1.selfRefreshEnergy            0                       # Energy for self refresh per rank (pJ)
system.mem_ctrls.dram.rank1.totalEnergy   19634842035                       # Total energy per rank (pJ)
system.mem_ctrls.dram.rank1.averagePower   531.656579                       # Core power per rank (mW)
system.mem_ctrls.dram.rank1.totalIdleTime            0                       # Total Idle time Per DRAM Rank
system.mem_ctrls.dram.rank1.pwrStateTime::IDLE   8945882125                       # Time in different power states
system.mem_ctrls.dram.rank1.pwrStateTime::REF   1233180000                       # Time in different power states
system.mem_ctrls.dram.rank1.pwrStateTime::SREF            0                       # Time in different power states
system.mem_ctrls.dram.rank1.pwrStateTime::PRE_PDN            0                       # Time in different power states
system.mem_ctrls.dram.rank1.pwrStateTime::ACT  26752376000                       # Time in different power states
system.mem_ctrls.dram.rank1.pwrStateTime::ACT_PDN            0                       # Time in different power states
system.mem_ctrls.power_state.pwrStateResidencyTicks::UNDEFINED  36931438125                       # Cumulative time (in ticks) in various power states
system.membus.trans_dist::ReadResp              23094                       # Transaction distribution
system.membus.trans_dist::WritebackDirty        52610                       # Transaction distribution
system.membus.trans_dist::WritebackClean         7032                       # Transaction distribution
system.membus.trans_dist::ReadExReq             37421                       # Transaction distribution
system.membus.trans_dist::ReadExResp            37421                       # Transaction distribution
system.membus.trans_dist::ReadCleanReq            397                       # Transaction distribution
system.membus.trans_dist::ReadSharedReq         22697                       # Transaction distribution
system.membus.pkt_count_system.cpu.icache.mem_side_port::system.mem_ctrls.port          830                       # Packet count per connected requestor and responder (bytes)
system.membus.pkt_count_system.cpu.dcache.mem_side_port::system.mem_ctrls.port       179842                       # Packet count per connected requestor and responder (bytes)
system.membus.pkt_count::total                 180672                       # Packet count per connected requestor and responder (bytes)
system.membus.pkt_size_system.cpu.icache.mem_side_port::system.mem_ctrls.port        27712                       # Cumulative packet size per connected requestor and responder (bytes)
system.membus.pkt_size_system.cpu.dcache.mem_side_port::system.mem_ctrls.port      7662336                       # Cumulative packet size per connected requestor and responder (bytes)
system.membus.pkt_size::total                 7690048                       # Cumulative packet size per connected requestor and responder (bytes)
system.membus.snoops                                0                       # Total snoops (count)
system.membus.snoopTraffic                          0                       # Total snoop traffic (bytes)
system.membus.snoop_fanout::samples             60515                       # Request fanout histogram
system.membus.snoop_fanout::mean             0.001438                       # Request fanout histogram
system.membus.snoop_fanout::stdev            0.037890                       # Request fanout histogram
system.membus.snoop_fanout::underflows              0      0.00%      0.00% # Request fanout histogram
system.membus.snoop_fanout::0                   60428     99.86%     99.86% # Request fanout histogram
system.membus.snoop_fanout::1                      87      0.14%    100.00% # Request fanout histogram
system.membus.snoop_fanout::2                       0      0.00%    100.00% # Request fanout histogram
system.membus.snoop_fanout::3                       0      0.00%    100.00% # Request fanout histogram
system.membus.snoop_fanout::4                       0      0.00%    100.00% # Request fanout histogram
system.membus.snoop_fanout::overflows               0      0.00%    100.00% # Request fanout histogram
system.membus.snoop_fanout::min_value               0                       # Request fanout histogram
system.membus.snoop_fanout::max_value               1                       # Request fanout histogram
system.membus.snoop_fanout::total               60515                       # Request fanout histogram
system.membus.power_state.pwrStateResidencyTicks::UNDEFINED  36931438125                       # Cumulative time (in ticks) in various power states
system.membus.reqLayer0.occupancy           409356125                       # Layer occupancy (ticks)
system.membus.reqLayer0.utilization               1.1                       # Layer utilization (%)
system.membus.respLayer1.occupancy            2108000                       # Layer occupancy (ticks)
system.membus.respLayer1.utilization              0.0                       # Layer utilization (%)
system.membus.respLayer2.occupancy          322544500                       # Layer occupancy (ticks)
system.membus.respLayer2.utilization              0.9                       # Layer utilization (%)
system.voltage_domain.voltage                       1                       # Voltage in Volts

---------- End Simulation Statistics   ----------
